
.subckt cpu2901 zero y_3 y_2 y_1 y_0 vssi vsse vddi vdde test signe scout scin 
+ r3 r0 q3 q0 ovr np noe ng i_8 i_7 i_6 i_5 i_4 i_3 i_2 i_1 i_0 fonc d_3 d_2 
+ d_1 d_0 cout cke cin b_3 b_2 b_1 b_0 a_3 a_2 a_1 a_0 
M1 vdde mbk_sig55 signe vddi TP L=0.18U W=14.4U AS=5.184P AD=5.184P PS=29.52U 
+ PD=29.52U 
M2 signe mbk_sig55 vdde vddi TP L=0.18U W=14.4U AS=5.184P AD=5.184P PS=29.52U 
+ PD=29.52U 
M3 vdde mbk_sig55 signe vddi TP L=0.18U W=14.4U AS=5.184P AD=5.184P PS=29.52U 
+ PD=29.52U 
M4 signe mbk_sig55 vdde vddi TP L=0.18U W=14.4U AS=5.184P AD=5.184P PS=29.52U 
+ PD=29.52U 
M5 vdde mbk_sig55 signe vddi TP L=0.18U W=14.4U AS=5.184P AD=5.184P PS=29.52U 
+ PD=29.52U 
M6 signe mbk_sig55 vdde vddi TP L=0.18U W=14.4U AS=5.184P AD=5.184P PS=29.52U 
+ PD=29.52U 
M7 vdde mbk_sig55 signe vddi TP L=0.18U W=14.4U AS=5.184P AD=5.184P PS=29.52U 
+ PD=29.52U 
M8 signe mbk_sig55 vdde vddi TP L=0.18U W=14.4U AS=5.184P AD=5.184P PS=29.52U 
+ PD=29.52U 
M9 vdde mbk_sig55 signe vddi TP L=0.18U W=14.4U AS=5.184P AD=5.184P PS=29.52U 
+ PD=29.52U 
M10 signe mbk_sig55 vdde vddi TP L=0.18U W=14.4U AS=5.184P AD=5.184P PS=29.52U 
+ PD=29.52U 
M11 vdde mbk_sig55 signe vddi TP L=0.18U W=14.4U AS=5.184P AD=5.184P PS=29.52U 
+ PD=29.52U 
M12 signe mbk_sig55 vdde vddi TP L=0.18U W=14.4U AS=5.184P AD=5.184P PS=29.52U 
+ PD=29.52U 
M13 vdde mbk_sig55 signe vddi TP L=0.18U W=14.4U AS=5.184P AD=5.184P PS=29.52U 
+ PD=29.52U 
M14 signe mbk_sig55 vdde vddi TP L=0.18U W=14.4U AS=5.184P AD=5.184P PS=29.52U 
+ PD=29.52U 
M15 vdde mbk_sig55 signe vddi TP L=0.18U W=14.4U AS=5.184P AD=5.184P PS=29.52U 
+ PD=29.52U 
M16 signe mbk_sig55 vdde vddi TP L=0.18U W=14.4U AS=5.184P AD=5.184P PS=29.52U 
+ PD=29.52U 
M17 vdde mbk_sig55 signe vddi TP L=0.18U W=14.4U AS=5.184P AD=5.184P PS=29.52U 
+ PD=29.52U 
M18 signe mbk_sig55 vdde vddi TP L=0.18U W=14.4U AS=5.184P AD=5.184P PS=29.52U 
+ PD=29.52U 
M19 vdde mbk_sig55 signe vddi TP L=0.18U W=14.4U AS=5.184P AD=5.184P PS=29.52U 
+ PD=29.52U 
M20 signe mbk_sig55 vdde vddi TP L=0.18U W=14.4U AS=5.184P AD=5.184P PS=29.52U 
+ PD=29.52U 
M21 vdde mbk_sig55 signe vddi TP L=0.18U W=14.4U AS=5.184P AD=5.184P PS=29.52U 
+ PD=29.52U 
M22 signe mbk_sig55 vdde vddi TP L=0.18U W=14.4U AS=5.184P AD=5.184P PS=29.52U 
+ PD=29.52U 
M23 vdde mbk_sig55 signe vddi TP L=0.18U W=14.4U AS=5.184P AD=5.184P PS=29.52U 
+ PD=29.52U 
M24 signe mbk_sig55 vdde vddi TP L=0.18U W=14.4U AS=5.184P AD=5.184P PS=29.52U 
+ PD=29.52U 
M25 vddi mbk_sig178 mbk_sig55 vddi TP L=0.18U W=10.8U AS=3.888P AD=3.888P 
+ PS=22.32U PD=22.32U 
M26 mbk_sig55 mbk_sig178 vddi vddi TP L=0.18U W=10.8U AS=3.888P AD=3.888P 
+ PS=22.32U PD=22.32U 
M27 mbk_sig55 mbk_sig178 vddi vddi TP L=0.18U W=10.8U AS=3.888P AD=3.888P 
+ PS=22.32U PD=22.32U 
M28 vddi mbk_sig179 mbk_sig178 vddi TP L=0.18U W=10.8U AS=3.888P AD=3.888P 
+ PS=22.32U PD=22.32U 
M29 vddi mbk_sig178 mbk_sig55 vddi TP L=0.18U W=10.8U AS=3.888P AD=3.888P 
+ PS=22.32U PD=22.32U 
M30 mbk_sig179 signec vddi vddi TP L=0.18U W=10.8U AS=3.888P AD=3.888P 
+ PS=22.32U PD=22.32U 
M31 vdde mbk_sig467 ovr vddi TP L=0.18U W=14.4U AS=5.184P AD=5.184P PS=29.52U 
+ PD=29.52U 
M32 ovr mbk_sig467 vdde vddi TP L=0.18U W=14.4U AS=5.184P AD=5.184P PS=29.52U 
+ PD=29.52U 
M33 vdde mbk_sig467 ovr vddi TP L=0.18U W=14.4U AS=5.184P AD=5.184P PS=29.52U 
+ PD=29.52U 
M34 ovr mbk_sig467 vdde vddi TP L=0.18U W=14.4U AS=5.184P AD=5.184P PS=29.52U 
+ PD=29.52U 
M35 vdde mbk_sig467 ovr vddi TP L=0.18U W=14.4U AS=5.184P AD=5.184P PS=29.52U 
+ PD=29.52U 
M36 ovr mbk_sig467 vdde vddi TP L=0.18U W=14.4U AS=5.184P AD=5.184P PS=29.52U 
+ PD=29.52U 
M37 vdde mbk_sig467 ovr vddi TP L=0.18U W=14.4U AS=5.184P AD=5.184P PS=29.52U 
+ PD=29.52U 
M38 ovr mbk_sig467 vdde vddi TP L=0.18U W=14.4U AS=5.184P AD=5.184P PS=29.52U 
+ PD=29.52U 
M39 vdde mbk_sig467 ovr vddi TP L=0.18U W=14.4U AS=5.184P AD=5.184P PS=29.52U 
+ PD=29.52U 
M40 ovr mbk_sig467 vdde vddi TP L=0.18U W=14.4U AS=5.184P AD=5.184P PS=29.52U 
+ PD=29.52U 
M41 vdde mbk_sig467 ovr vddi TP L=0.18U W=14.4U AS=5.184P AD=5.184P PS=29.52U 
+ PD=29.52U 
M42 ovr mbk_sig467 vdde vddi TP L=0.18U W=14.4U AS=5.184P AD=5.184P PS=29.52U 
+ PD=29.52U 
M43 vdde mbk_sig467 ovr vddi TP L=0.18U W=14.4U AS=5.184P AD=5.184P PS=29.52U 
+ PD=29.52U 
M44 ovr mbk_sig467 vdde vddi TP L=0.18U W=14.4U AS=5.184P AD=5.184P PS=29.52U 
+ PD=29.52U 
M45 vdde mbk_sig467 ovr vddi TP L=0.18U W=14.4U AS=5.184P AD=5.184P PS=29.52U 
+ PD=29.52U 
M46 ovr mbk_sig467 vdde vddi TP L=0.18U W=14.4U AS=5.184P AD=5.184P PS=29.52U 
+ PD=29.52U 
M47 vdde mbk_sig467 ovr vddi TP L=0.18U W=14.4U AS=5.184P AD=5.184P PS=29.52U 
+ PD=29.52U 
M48 ovr mbk_sig467 vdde vddi TP L=0.18U W=14.4U AS=5.184P AD=5.184P PS=29.52U 
+ PD=29.52U 
M49 vdde mbk_sig467 ovr vddi TP L=0.18U W=14.4U AS=5.184P AD=5.184P PS=29.52U 
+ PD=29.52U 
M50 ovr mbk_sig467 vdde vddi TP L=0.18U W=14.4U AS=5.184P AD=5.184P PS=29.52U 
+ PD=29.52U 
M51 vdde mbk_sig467 ovr vddi TP L=0.18U W=14.4U AS=5.184P AD=5.184P PS=29.52U 
+ PD=29.52U 
M52 ovr mbk_sig467 vdde vddi TP L=0.18U W=14.4U AS=5.184P AD=5.184P PS=29.52U 
+ PD=29.52U 
M53 vdde mbk_sig467 ovr vddi TP L=0.18U W=14.4U AS=5.184P AD=5.184P PS=29.52U 
+ PD=29.52U 
M54 ovr mbk_sig467 vdde vddi TP L=0.18U W=14.4U AS=5.184P AD=5.184P PS=29.52U 
+ PD=29.52U 
M55 vddi mbk_sig478 mbk_sig467 vddi TP L=0.18U W=10.8U AS=3.888P AD=3.888P 
+ PS=22.32U PD=22.32U 
M56 mbk_sig467 mbk_sig478 vddi vddi TP L=0.18U W=10.8U AS=3.888P AD=3.888P 
+ PS=22.32U PD=22.32U 
M57 mbk_sig467 mbk_sig478 vddi vddi TP L=0.18U W=10.8U AS=3.888P AD=3.888P 
+ PS=22.32U PD=22.32U 
M58 vddi mbk_sig479 mbk_sig478 vddi TP L=0.18U W=10.8U AS=3.888P AD=3.888P 
+ PS=22.32U PD=22.32U 
M59 vddi mbk_sig478 mbk_sig467 vddi TP L=0.18U W=10.8U AS=3.888P AD=3.888P 
+ PS=22.32U PD=22.32U 
M60 mbk_sig479 ovrc vddi vddi TP L=0.18U W=10.8U AS=3.888P AD=3.888P PS=22.32U 
+ PD=22.32U 
M61 vdde mbk_sig682 cout vddi TP L=0.18U W=14.4U AS=5.184P AD=5.184P PS=29.52U 
+ PD=29.52U 
M62 cout mbk_sig682 vdde vddi TP L=0.18U W=14.4U AS=5.184P AD=5.184P PS=29.52U 
+ PD=29.52U 
M63 vdde mbk_sig682 cout vddi TP L=0.18U W=14.4U AS=5.184P AD=5.184P PS=29.52U 
+ PD=29.52U 
M64 cout mbk_sig682 vdde vddi TP L=0.18U W=14.4U AS=5.184P AD=5.184P PS=29.52U 
+ PD=29.52U 
M65 vdde mbk_sig682 cout vddi TP L=0.18U W=14.4U AS=5.184P AD=5.184P PS=29.52U 
+ PD=29.52U 
M66 cout mbk_sig682 vdde vddi TP L=0.18U W=14.4U AS=5.184P AD=5.184P PS=29.52U 
+ PD=29.52U 
M67 vdde mbk_sig682 cout vddi TP L=0.18U W=14.4U AS=5.184P AD=5.184P PS=29.52U 
+ PD=29.52U 
M68 cout mbk_sig682 vdde vddi TP L=0.18U W=14.4U AS=5.184P AD=5.184P PS=29.52U 
+ PD=29.52U 
M69 vdde mbk_sig682 cout vddi TP L=0.18U W=14.4U AS=5.184P AD=5.184P PS=29.52U 
+ PD=29.52U 
M70 cout mbk_sig682 vdde vddi TP L=0.18U W=14.4U AS=5.184P AD=5.184P PS=29.52U 
+ PD=29.52U 
M71 vdde mbk_sig682 cout vddi TP L=0.18U W=14.4U AS=5.184P AD=5.184P PS=29.52U 
+ PD=29.52U 
M72 cout mbk_sig682 vdde vddi TP L=0.18U W=14.4U AS=5.184P AD=5.184P PS=29.52U 
+ PD=29.52U 
M73 vdde mbk_sig682 cout vddi TP L=0.18U W=14.4U AS=5.184P AD=5.184P PS=29.52U 
+ PD=29.52U 
M74 cout mbk_sig682 vdde vddi TP L=0.18U W=14.4U AS=5.184P AD=5.184P PS=29.52U 
+ PD=29.52U 
M75 vdde mbk_sig682 cout vddi TP L=0.18U W=14.4U AS=5.184P AD=5.184P PS=29.52U 
+ PD=29.52U 
M76 cout mbk_sig682 vdde vddi TP L=0.18U W=14.4U AS=5.184P AD=5.184P PS=29.52U 
+ PD=29.52U 
M77 vdde mbk_sig682 cout vddi TP L=0.18U W=14.4U AS=5.184P AD=5.184P PS=29.52U 
+ PD=29.52U 
M78 cout mbk_sig682 vdde vddi TP L=0.18U W=14.4U AS=5.184P AD=5.184P PS=29.52U 
+ PD=29.52U 
M79 vdde mbk_sig682 cout vddi TP L=0.18U W=14.4U AS=5.184P AD=5.184P PS=29.52U 
+ PD=29.52U 
M80 cout mbk_sig682 vdde vddi TP L=0.18U W=14.4U AS=5.184P AD=5.184P PS=29.52U 
+ PD=29.52U 
M81 vdde mbk_sig682 cout vddi TP L=0.18U W=14.4U AS=5.184P AD=5.184P PS=29.52U 
+ PD=29.52U 
M82 cout mbk_sig682 vdde vddi TP L=0.18U W=14.4U AS=5.184P AD=5.184P PS=29.52U 
+ PD=29.52U 
M83 vdde mbk_sig682 cout vddi TP L=0.18U W=14.4U AS=5.184P AD=5.184P PS=29.52U 
+ PD=29.52U 
M84 cout mbk_sig682 vdde vddi TP L=0.18U W=14.4U AS=5.184P AD=5.184P PS=29.52U 
+ PD=29.52U 
M85 vddi mbk_sig687 mbk_sig682 vddi TP L=0.18U W=10.8U AS=3.888P AD=3.888P 
+ PS=22.32U PD=22.32U 
M86 mbk_sig682 mbk_sig687 vddi vddi TP L=0.18U W=10.8U AS=3.888P AD=3.888P 
+ PS=22.32U PD=22.32U 
M87 mbk_sig682 mbk_sig687 vddi vddi TP L=0.18U W=10.8U AS=3.888P AD=3.888P 
+ PS=22.32U PD=22.32U 
M88 vddi mbk_sig686 mbk_sig687 vddi TP L=0.18U W=10.8U AS=3.888P AD=3.888P 
+ PS=22.32U PD=22.32U 
M89 vddi mbk_sig687 mbk_sig682 vddi TP L=0.18U W=10.8U AS=3.888P AD=3.888P 
+ PS=22.32U PD=22.32U 
M90 mbk_sig686 coutc vddi vddi TP L=0.18U W=10.8U AS=3.888P AD=3.888P 
+ PS=22.32U PD=22.32U 
M91 vdde mbk_sig871 zero vddi TP L=0.18U W=14.4U AS=5.184P AD=5.184P PS=29.52U 
+ PD=29.52U 
M92 zero mbk_sig871 vdde vddi TP L=0.18U W=14.4U AS=5.184P AD=5.184P PS=29.52U 
+ PD=29.52U 
M93 vdde mbk_sig871 zero vddi TP L=0.18U W=14.4U AS=5.184P AD=5.184P PS=29.52U 
+ PD=29.52U 
M94 zero mbk_sig871 vdde vddi TP L=0.18U W=14.4U AS=5.184P AD=5.184P PS=29.52U 
+ PD=29.52U 
M95 vdde mbk_sig871 zero vddi TP L=0.18U W=14.4U AS=5.184P AD=5.184P PS=29.52U 
+ PD=29.52U 
M96 zero mbk_sig871 vdde vddi TP L=0.18U W=14.4U AS=5.184P AD=5.184P PS=29.52U 
+ PD=29.52U 
M97 vdde mbk_sig871 zero vddi TP L=0.18U W=14.4U AS=5.184P AD=5.184P PS=29.52U 
+ PD=29.52U 
M98 zero mbk_sig871 vdde vddi TP L=0.18U W=14.4U AS=5.184P AD=5.184P PS=29.52U 
+ PD=29.52U 
M99 vdde mbk_sig871 zero vddi TP L=0.18U W=14.4U AS=5.184P AD=5.184P PS=29.52U 
+ PD=29.52U 
M100 zero mbk_sig871 vdde vddi TP L=0.18U W=14.4U AS=5.184P AD=5.184P 
+ PS=29.52U PD=29.52U 
M101 vdde mbk_sig871 zero vddi TP L=0.18U W=14.4U AS=5.184P AD=5.184P 
+ PS=29.52U PD=29.52U 
M102 zero mbk_sig871 vdde vddi TP L=0.18U W=14.4U AS=5.184P AD=5.184P 
+ PS=29.52U PD=29.52U 
M103 vdde mbk_sig871 zero vddi TP L=0.18U W=14.4U AS=5.184P AD=5.184P 
+ PS=29.52U PD=29.52U 
M104 zero mbk_sig871 vdde vddi TP L=0.18U W=14.4U AS=5.184P AD=5.184P 
+ PS=29.52U PD=29.52U 
M105 vdde mbk_sig871 zero vddi TP L=0.18U W=14.4U AS=5.184P AD=5.184P 
+ PS=29.52U PD=29.52U 
M106 zero mbk_sig871 vdde vddi TP L=0.18U W=14.4U AS=5.184P AD=5.184P 
+ PS=29.52U PD=29.52U 
M107 vdde mbk_sig871 zero vddi TP L=0.18U W=14.4U AS=5.184P AD=5.184P 
+ PS=29.52U PD=29.52U 
M108 zero mbk_sig871 vdde vddi TP L=0.18U W=14.4U AS=5.184P AD=5.184P 
+ PS=29.52U PD=29.52U 
M109 vdde mbk_sig871 zero vddi TP L=0.18U W=14.4U AS=5.184P AD=5.184P 
+ PS=29.52U PD=29.52U 
M110 zero mbk_sig871 vdde vddi TP L=0.18U W=14.4U AS=5.184P AD=5.184P 
+ PS=29.52U PD=29.52U 
M111 vdde mbk_sig871 zero vddi TP L=0.18U W=14.4U AS=5.184P AD=5.184P 
+ PS=29.52U PD=29.52U 
M112 zero mbk_sig871 vdde vddi TP L=0.18U W=14.4U AS=5.184P AD=5.184P 
+ PS=29.52U PD=29.52U 
M113 vdde mbk_sig871 zero vddi TP L=0.18U W=14.4U AS=5.184P AD=5.184P 
+ PS=29.52U PD=29.52U 
M114 zero mbk_sig871 vdde vddi TP L=0.18U W=14.4U AS=5.184P AD=5.184P 
+ PS=29.52U PD=29.52U 
M115 vddi mbk_sig878 mbk_sig871 vddi TP L=0.18U W=10.8U AS=3.888P AD=3.888P 
+ PS=22.32U PD=22.32U 
M116 mbk_sig871 mbk_sig878 vddi vddi TP L=0.18U W=10.8U AS=3.888P AD=3.888P 
+ PS=22.32U PD=22.32U 
M117 mbk_sig871 mbk_sig878 vddi vddi TP L=0.18U W=10.8U AS=3.888P AD=3.888P 
+ PS=22.32U PD=22.32U 
M118 vddi mbk_sig879 mbk_sig878 vddi TP L=0.18U W=10.8U AS=3.888P AD=3.888P 
+ PS=22.32U PD=22.32U 
M119 vddi mbk_sig878 mbk_sig871 vddi TP L=0.18U W=10.8U AS=3.888P AD=3.888P 
+ PS=22.32U PD=22.32U 
M120 mbk_sig879 zeroc vddi vddi TP L=0.18U W=10.8U AS=3.888P AD=3.888P 
+ PS=22.32U PD=22.32U 
M121 fonc vdde vdde vddi TP L=0.18U W=14.4U AS=5.184P AD=5.184P PS=29.52U 
+ PD=29.52U 
M122 vdde vdde fonc vddi TP L=0.18U W=14.4U AS=5.184P AD=5.184P PS=29.52U 
+ PD=29.52U 
M123 fonc vdde vdde vddi TP L=0.18U W=14.4U AS=5.184P AD=5.184P PS=29.52U 
+ PD=29.52U 
M124 vdde vdde fonc vddi TP L=0.18U W=14.4U AS=5.184P AD=5.184P PS=29.52U 
+ PD=29.52U 
M125 vddi fonc mbk_sig1066 vddi TP L=0.18U W=4.86U AS=1.7496P AD=1.7496P 
+ PS=10.44U PD=10.44U 
M126 fonci mbk_sig1066 vddi vddi TP L=0.18U W=10.26U AS=3.6936P AD=3.6936P 
+ PS=21.24U PD=21.24U 
M127 vddi mbk_sig1066 fonci vddi TP L=0.18U W=10.26U AS=3.6936P AD=3.6936P 
+ PS=21.24U PD=21.24U 
M128 test vdde vdde vddi TP L=0.18U W=14.4U AS=5.184P AD=5.184P PS=29.52U 
+ PD=29.52U 
M129 vdde vdde test vddi TP L=0.18U W=14.4U AS=5.184P AD=5.184P PS=29.52U 
+ PD=29.52U 
M130 test vdde vdde vddi TP L=0.18U W=14.4U AS=5.184P AD=5.184P PS=29.52U 
+ PD=29.52U 
M131 vdde vdde test vddi TP L=0.18U W=14.4U AS=5.184P AD=5.184P PS=29.52U 
+ PD=29.52U 
M132 vddi test mbk_sig1271 vddi TP L=0.18U W=4.86U AS=1.7496P AD=1.7496P 
+ PS=10.44U PD=10.44U 
M133 testi mbk_sig1271 vddi vddi TP L=0.18U W=10.26U AS=3.6936P AD=3.6936P 
+ PS=21.24U PD=21.24U 
M134 vddi mbk_sig1271 testi vddi TP L=0.18U W=10.26U AS=3.6936P AD=3.6936P 
+ PS=21.24U PD=21.24U 
M135 scin vdde vdde vddi TP L=0.18U W=14.4U AS=5.184P AD=5.184P PS=29.52U 
+ PD=29.52U 
M136 vdde vdde scin vddi TP L=0.18U W=14.4U AS=5.184P AD=5.184P PS=29.52U 
+ PD=29.52U 
M137 scin vdde vdde vddi TP L=0.18U W=14.4U AS=5.184P AD=5.184P PS=29.52U 
+ PD=29.52U 
M138 vdde vdde scin vddi TP L=0.18U W=14.4U AS=5.184P AD=5.184P PS=29.52U 
+ PD=29.52U 
M139 vddi scin mbk_sig1466 vddi TP L=0.18U W=4.86U AS=1.7496P AD=1.7496P 
+ PS=10.44U PD=10.44U 
M140 scini mbk_sig1466 vddi vddi TP L=0.18U W=10.26U AS=3.6936P AD=3.6936P 
+ PS=21.24U PD=21.24U 
M141 vddi mbk_sig1466 scini vddi TP L=0.18U W=10.26U AS=3.6936P AD=3.6936P 
+ PS=21.24U PD=21.24U 
M142 q0 mbk_sig1638 vdde vddi TP L=0.18U W=14.4U AS=5.184P AD=5.184P PS=29.52U 
+ PD=29.52U 
M143 vdde mbk_sig1638 q0 vddi TP L=0.18U W=14.4U AS=5.184P AD=5.184P PS=29.52U 
+ PD=29.52U 
M144 q0 mbk_sig1638 vdde vddi TP L=0.18U W=14.4U AS=5.184P AD=5.184P PS=29.52U 
+ PD=29.52U 
M145 vdde mbk_sig1638 q0 vddi TP L=0.18U W=14.4U AS=5.184P AD=5.184P PS=29.52U 
+ PD=29.52U 
M146 vdde mbk_sig1638 q0 vddi TP L=0.18U W=14.4U AS=5.184P AD=5.184P PS=29.52U 
+ PD=29.52U 
M147 q0 mbk_sig1638 vdde vddi TP L=0.18U W=14.4U AS=5.184P AD=5.184P PS=29.52U 
+ PD=29.52U 
M148 vdde mbk_sig1638 q0 vddi TP L=0.18U W=14.4U AS=5.184P AD=5.184P PS=29.52U 
+ PD=29.52U 
M149 q0 mbk_sig1638 vdde vddi TP L=0.18U W=14.4U AS=5.184P AD=5.184P PS=29.52U 
+ PD=29.52U 
M150 vdde mbk_sig1638 q0 vddi TP L=0.18U W=14.4U AS=5.184P AD=5.184P PS=29.52U 
+ PD=29.52U 
M151 q0 mbk_sig1638 vdde vddi TP L=0.18U W=14.4U AS=5.184P AD=5.184P PS=29.52U 
+ PD=29.52U 
M152 vdde mbk_sig1638 q0 vddi TP L=0.18U W=14.4U AS=5.184P AD=5.184P PS=29.52U 
+ PD=29.52U 
M153 q0 mbk_sig1638 vdde vddi TP L=0.18U W=14.4U AS=5.184P AD=5.184P PS=29.52U 
+ PD=29.52U 
M154 vdde mbk_sig1638 q0 vddi TP L=0.18U W=14.4U AS=5.184P AD=5.184P PS=29.52U 
+ PD=29.52U 
M155 q0 mbk_sig1638 vdde vddi TP L=0.18U W=14.4U AS=5.184P AD=5.184P PS=29.52U 
+ PD=29.52U 
M156 vdde mbk_sig1638 q0 vddi TP L=0.18U W=14.4U AS=5.184P AD=5.184P PS=29.52U 
+ PD=29.52U 
M157 q0 mbk_sig1638 vdde vddi TP L=0.18U W=14.4U AS=5.184P AD=5.184P PS=29.52U 
+ PD=29.52U 
M158 vdde mbk_sig1638 q0 vddi TP L=0.18U W=14.4U AS=5.184P AD=5.184P PS=29.52U 
+ PD=29.52U 
M159 q0 mbk_sig1638 vdde vddi TP L=0.18U W=14.4U AS=5.184P AD=5.184P PS=29.52U 
+ PD=29.52U 
M160 vdde mbk_sig1638 q0 vddi TP L=0.18U W=14.4U AS=5.184P AD=5.184P PS=29.52U 
+ PD=29.52U 
M161 q0 mbk_sig1638 vdde vddi TP L=0.18U W=14.4U AS=5.184P AD=5.184P PS=29.52U 
+ PD=29.52U 
M162 vdde mbk_sig1638 q0 vddi TP L=0.18U W=14.4U AS=5.184P AD=5.184P PS=29.52U 
+ PD=29.52U 
M163 q0 mbk_sig1638 vdde vddi TP L=0.18U W=14.4U AS=5.184P AD=5.184P PS=29.52U 
+ PD=29.52U 
M164 vdde mbk_sig1638 q0 vddi TP L=0.18U W=14.4U AS=5.184P AD=5.184P PS=29.52U 
+ PD=29.52U 
M165 q0 mbk_sig1638 vdde vddi TP L=0.18U W=14.4U AS=5.184P AD=5.184P PS=29.52U 
+ PD=29.52U 
M166 mbk_sig1652 decaldc vddi vddi TP L=0.18U W=3.6U AS=1.296P AD=1.296P 
+ PS=7.92U PD=7.92U 
M167 vddi mbk_sig1652 mbk_sig1653 vddi TP L=0.18U W=3.6U AS=1.296P AD=1.296P 
+ PS=7.92U PD=7.92U 
M168 q0i mbk_sig1636 vddi vddi TP L=0.18U W=10.8U AS=3.888P AD=3.888P 
+ PS=22.32U PD=22.32U 
M169 vddi q0 mbk_sig1636 vddi TP L=0.18U W=5.4U AS=1.944P AD=1.944P PS=11.52U 
+ PD=11.52U 
M170 vddi vssi q0 vddi TP L=7.2U W=0.54U AS=0.1944P AD=0.1944P PS=1.8U PD=1.8U 
+ 
M171 vddi mbk_sig1653 mbk_sig1638 vddi TP L=0.18U W=10.8U AS=3.888P AD=3.888P 
+ PS=22.32U PD=22.32U 
M172 mbk_sig1647 f0c vddi vddi TP L=0.18U W=10.8U AS=3.888P AD=3.888P 
+ PS=22.32U PD=22.32U 
M173 vddi mbk_sig1636 q0i vddi TP L=0.18U W=10.8U AS=3.888P AD=3.888P 
+ PS=22.32U PD=22.32U 
M174 mbk_sig1638 mbk_sig1653 vddi vddi TP L=0.18U W=10.8U AS=3.888P AD=3.888P 
+ PS=22.32U PD=22.32U 
M175 vddi mbk_sig1653 mbk_sig1638 vddi TP L=0.18U W=10.8U AS=3.888P AD=3.888P 
+ PS=22.32U PD=22.32U 
M176 mbk_sig1638 mbk_sig1653 vddi vddi TP L=0.18U W=10.8U AS=3.888P AD=3.888P 
+ PS=22.32U PD=22.32U 
M177 vddi mbk_sig1647 mbk_sig1646 vddi TP L=0.18U W=10.8U AS=3.888P AD=3.888P 
+ PS=22.32U PD=22.32U 
M178 mbk_sig1638 mbk_sig1646 vddi vddi TP L=0.18U W=10.8U AS=3.888P AD=3.888P 
+ PS=22.32U PD=22.32U 
M179 vddi mbk_sig1646 mbk_sig1638 vddi TP L=0.18U W=10.8U AS=3.888P AD=3.888P 
+ PS=22.32U PD=22.32U 
M180 vddi mbk_sig1646 mbk_sig1638 vddi TP L=0.18U W=10.8U AS=3.888P AD=3.888P 
+ PS=22.32U PD=22.32U 
M181 mbk_sig1638 mbk_sig1652 mbk_sig1639 vddi TP L=0.18U W=10.62U AS=3.8232P 
+ AD=3.8232P PS=21.96U PD=21.96U 
M182 mbk_sig1639 mbk_sig1652 mbk_sig1638 vddi TP L=0.18U W=10.62U AS=3.8232P 
+ AD=3.8232P PS=21.96U PD=21.96U 
M183 mbk_sig1638 mbk_sig1646 vddi vddi TP L=0.18U W=10.8U AS=3.888P AD=3.888P 
+ PS=22.32U PD=22.32U 
M184 mbk_sig1638 mbk_sig1652 mbk_sig1639 vddi TP L=0.18U W=10.62U AS=3.8232P 
+ AD=3.8232P PS=21.96U PD=21.96U 
M185 mbk_sig1639 mbk_sig1652 mbk_sig1638 vddi TP L=0.18U W=10.62U AS=3.8232P 
+ AD=3.8232P PS=21.96U PD=21.96U 
M186 q3 mbk_sig1817 vdde vddi TP L=0.18U W=14.4U AS=5.184P AD=5.184P PS=29.52U 
+ PD=29.52U 
M187 vdde mbk_sig1817 q3 vddi TP L=0.18U W=14.4U AS=5.184P AD=5.184P PS=29.52U 
+ PD=29.52U 
M188 q3 mbk_sig1817 vdde vddi TP L=0.18U W=14.4U AS=5.184P AD=5.184P PS=29.52U 
+ PD=29.52U 
M189 vdde mbk_sig1817 q3 vddi TP L=0.18U W=14.4U AS=5.184P AD=5.184P PS=29.52U 
+ PD=29.52U 
M190 vdde mbk_sig1817 q3 vddi TP L=0.18U W=14.4U AS=5.184P AD=5.184P PS=29.52U 
+ PD=29.52U 
M191 q3 mbk_sig1817 vdde vddi TP L=0.18U W=14.4U AS=5.184P AD=5.184P PS=29.52U 
+ PD=29.52U 
M192 vdde mbk_sig1817 q3 vddi TP L=0.18U W=14.4U AS=5.184P AD=5.184P PS=29.52U 
+ PD=29.52U 
M193 q3 mbk_sig1817 vdde vddi TP L=0.18U W=14.4U AS=5.184P AD=5.184P PS=29.52U 
+ PD=29.52U 
M194 vdde mbk_sig1817 q3 vddi TP L=0.18U W=14.4U AS=5.184P AD=5.184P PS=29.52U 
+ PD=29.52U 
M195 q3 mbk_sig1817 vdde vddi TP L=0.18U W=14.4U AS=5.184P AD=5.184P PS=29.52U 
+ PD=29.52U 
M196 vdde mbk_sig1817 q3 vddi TP L=0.18U W=14.4U AS=5.184P AD=5.184P PS=29.52U 
+ PD=29.52U 
M197 q3 mbk_sig1817 vdde vddi TP L=0.18U W=14.4U AS=5.184P AD=5.184P PS=29.52U 
+ PD=29.52U 
M198 vdde mbk_sig1817 q3 vddi TP L=0.18U W=14.4U AS=5.184P AD=5.184P PS=29.52U 
+ PD=29.52U 
M199 q3 mbk_sig1817 vdde vddi TP L=0.18U W=14.4U AS=5.184P AD=5.184P PS=29.52U 
+ PD=29.52U 
M200 vdde mbk_sig1817 q3 vddi TP L=0.18U W=14.4U AS=5.184P AD=5.184P PS=29.52U 
+ PD=29.52U 
M201 q3 mbk_sig1817 vdde vddi TP L=0.18U W=14.4U AS=5.184P AD=5.184P PS=29.52U 
+ PD=29.52U 
M202 vdde mbk_sig1817 q3 vddi TP L=0.18U W=14.4U AS=5.184P AD=5.184P PS=29.52U 
+ PD=29.52U 
M203 q3 mbk_sig1817 vdde vddi TP L=0.18U W=14.4U AS=5.184P AD=5.184P PS=29.52U 
+ PD=29.52U 
M204 vdde mbk_sig1817 q3 vddi TP L=0.18U W=14.4U AS=5.184P AD=5.184P PS=29.52U 
+ PD=29.52U 
M205 q3 mbk_sig1817 vdde vddi TP L=0.18U W=14.4U AS=5.184P AD=5.184P PS=29.52U 
+ PD=29.52U 
M206 vdde mbk_sig1817 q3 vddi TP L=0.18U W=14.4U AS=5.184P AD=5.184P PS=29.52U 
+ PD=29.52U 
M207 q3 mbk_sig1817 vdde vddi TP L=0.18U W=14.4U AS=5.184P AD=5.184P PS=29.52U 
+ PD=29.52U 
M208 vdde mbk_sig1817 q3 vddi TP L=0.18U W=14.4U AS=5.184P AD=5.184P PS=29.52U 
+ PD=29.52U 
M209 q3 mbk_sig1817 vdde vddi TP L=0.18U W=14.4U AS=5.184P AD=5.184P PS=29.52U 
+ PD=29.52U 
M210 mbk_sig1835 decalgc vddi vddi TP L=0.18U W=3.6U AS=1.296P AD=1.296P 
+ PS=7.92U PD=7.92U 
M211 vddi mbk_sig1835 mbk_sig1836 vddi TP L=0.18U W=3.6U AS=1.296P AD=1.296P 
+ PS=7.92U PD=7.92U 
M212 q3i mbk_sig1815 vddi vddi TP L=0.18U W=10.8U AS=3.888P AD=3.888P 
+ PS=22.32U PD=22.32U 
M213 vddi q3 mbk_sig1815 vddi TP L=0.18U W=5.4U AS=1.944P AD=1.944P PS=11.52U 
+ PD=11.52U 
M214 vddi vssi q3 vddi TP L=7.2U W=0.54U AS=0.1944P AD=0.1944P PS=1.8U PD=1.8U 
+ 
M215 vddi mbk_sig1836 mbk_sig1817 vddi TP L=0.18U W=10.8U AS=3.888P AD=3.888P 
+ PS=22.32U PD=22.32U 
M216 mbk_sig1827 f3c vddi vddi TP L=0.18U W=10.8U AS=3.888P AD=3.888P 
+ PS=22.32U PD=22.32U 
M217 vddi mbk_sig1815 q3i vddi TP L=0.18U W=10.8U AS=3.888P AD=3.888P 
+ PS=22.32U PD=22.32U 
M218 mbk_sig1817 mbk_sig1836 vddi vddi TP L=0.18U W=10.8U AS=3.888P AD=3.888P 
+ PS=22.32U PD=22.32U 
M219 vddi mbk_sig1836 mbk_sig1817 vddi TP L=0.18U W=10.8U AS=3.888P AD=3.888P 
+ PS=22.32U PD=22.32U 
M220 mbk_sig1817 mbk_sig1836 vddi vddi TP L=0.18U W=10.8U AS=3.888P AD=3.888P 
+ PS=22.32U PD=22.32U 
M221 vddi mbk_sig1827 mbk_sig1826 vddi TP L=0.18U W=10.8U AS=3.888P AD=3.888P 
+ PS=22.32U PD=22.32U 
M222 mbk_sig1817 mbk_sig1826 vddi vddi TP L=0.18U W=10.8U AS=3.888P AD=3.888P 
+ PS=22.32U PD=22.32U 
M223 vddi mbk_sig1826 mbk_sig1817 vddi TP L=0.18U W=10.8U AS=3.888P AD=3.888P 
+ PS=22.32U PD=22.32U 
M224 vddi mbk_sig1826 mbk_sig1817 vddi TP L=0.18U W=10.8U AS=3.888P AD=3.888P 
+ PS=22.32U PD=22.32U 
M225 mbk_sig1817 mbk_sig1835 mbk_sig1818 vddi TP L=0.18U W=10.62U AS=3.8232P 
+ AD=3.8232P PS=21.96U PD=21.96U 
M226 mbk_sig1818 mbk_sig1835 mbk_sig1817 vddi TP L=0.18U W=10.62U AS=3.8232P 
+ AD=3.8232P PS=21.96U PD=21.96U 
M227 mbk_sig1817 mbk_sig1826 vddi vddi TP L=0.18U W=10.8U AS=3.888P AD=3.888P 
+ PS=22.32U PD=22.32U 
M228 mbk_sig1817 mbk_sig1835 mbk_sig1818 vddi TP L=0.18U W=10.62U AS=3.8232P 
+ AD=3.8232P PS=21.96U PD=21.96U 
M229 mbk_sig1818 mbk_sig1835 mbk_sig1817 vddi TP L=0.18U W=10.62U AS=3.8232P 
+ AD=3.8232P PS=21.96U PD=21.96U 
M230 cin vdde vdde vddi TP L=0.18U W=14.4U AS=5.184P AD=5.184P PS=29.52U 
+ PD=29.52U 
M231 vdde vdde cin vddi TP L=0.18U W=14.4U AS=5.184P AD=5.184P PS=29.52U 
+ PD=29.52U 
M232 cin vdde vdde vddi TP L=0.18U W=14.4U AS=5.184P AD=5.184P PS=29.52U 
+ PD=29.52U 
M233 vdde vdde cin vddi TP L=0.18U W=14.4U AS=5.184P AD=5.184P PS=29.52U 
+ PD=29.52U 
M234 vddi cin mbk_sig44 vddi TP L=0.18U W=4.86U AS=1.7496P AD=1.7496P 
+ PS=10.44U PD=10.44U 
M235 cini mbk_sig44 vddi vddi TP L=0.18U W=10.26U AS=3.6936P AD=3.6936P 
+ PS=21.24U PD=21.24U 
M236 vddi mbk_sig44 cini vddi TP L=0.18U W=10.26U AS=3.6936P AD=3.6936P 
+ PS=21.24U PD=21.24U 
M237 vdde mbk_sig57 np vddi TP L=0.18U W=14.4U AS=5.184P AD=5.184P PS=29.52U 
+ PD=29.52U 
M238 np mbk_sig57 vdde vddi TP L=0.18U W=14.4U AS=5.184P AD=5.184P PS=29.52U 
+ PD=29.52U 
M239 vdde mbk_sig57 np vddi TP L=0.18U W=14.4U AS=5.184P AD=5.184P PS=29.52U 
+ PD=29.52U 
M240 np mbk_sig57 vdde vddi TP L=0.18U W=14.4U AS=5.184P AD=5.184P PS=29.52U 
+ PD=29.52U 
M241 vdde mbk_sig57 np vddi TP L=0.18U W=14.4U AS=5.184P AD=5.184P PS=29.52U 
+ PD=29.52U 
M242 np mbk_sig57 vdde vddi TP L=0.18U W=14.4U AS=5.184P AD=5.184P PS=29.52U 
+ PD=29.52U 
M243 vdde mbk_sig57 np vddi TP L=0.18U W=14.4U AS=5.184P AD=5.184P PS=29.52U 
+ PD=29.52U 
M244 np mbk_sig57 vdde vddi TP L=0.18U W=14.4U AS=5.184P AD=5.184P PS=29.52U 
+ PD=29.52U 
M245 vdde mbk_sig57 np vddi TP L=0.18U W=14.4U AS=5.184P AD=5.184P PS=29.52U 
+ PD=29.52U 
M246 np mbk_sig57 vdde vddi TP L=0.18U W=14.4U AS=5.184P AD=5.184P PS=29.52U 
+ PD=29.52U 
M247 vdde mbk_sig57 np vddi TP L=0.18U W=14.4U AS=5.184P AD=5.184P PS=29.52U 
+ PD=29.52U 
M248 np mbk_sig57 vdde vddi TP L=0.18U W=14.4U AS=5.184P AD=5.184P PS=29.52U 
+ PD=29.52U 
M249 vdde mbk_sig57 np vddi TP L=0.18U W=14.4U AS=5.184P AD=5.184P PS=29.52U 
+ PD=29.52U 
M250 np mbk_sig57 vdde vddi TP L=0.18U W=14.4U AS=5.184P AD=5.184P PS=29.52U 
+ PD=29.52U 
M251 vdde mbk_sig57 np vddi TP L=0.18U W=14.4U AS=5.184P AD=5.184P PS=29.52U 
+ PD=29.52U 
M252 np mbk_sig57 vdde vddi TP L=0.18U W=14.4U AS=5.184P AD=5.184P PS=29.52U 
+ PD=29.52U 
M253 vdde mbk_sig57 np vddi TP L=0.18U W=14.4U AS=5.184P AD=5.184P PS=29.52U 
+ PD=29.52U 
M254 np mbk_sig57 vdde vddi TP L=0.18U W=14.4U AS=5.184P AD=5.184P PS=29.52U 
+ PD=29.52U 
M255 vdde mbk_sig57 np vddi TP L=0.18U W=14.4U AS=5.184P AD=5.184P PS=29.52U 
+ PD=29.52U 
M256 np mbk_sig57 vdde vddi TP L=0.18U W=14.4U AS=5.184P AD=5.184P PS=29.52U 
+ PD=29.52U 
M257 vdde mbk_sig57 np vddi TP L=0.18U W=14.4U AS=5.184P AD=5.184P PS=29.52U 
+ PD=29.52U 
M258 np mbk_sig57 vdde vddi TP L=0.18U W=14.4U AS=5.184P AD=5.184P PS=29.52U 
+ PD=29.52U 
M259 vdde mbk_sig57 np vddi TP L=0.18U W=14.4U AS=5.184P AD=5.184P PS=29.52U 
+ PD=29.52U 
M260 np mbk_sig57 vdde vddi TP L=0.18U W=14.4U AS=5.184P AD=5.184P PS=29.52U 
+ PD=29.52U 
M261 vddi mbk_sig265 mbk_sig57 vddi TP L=0.18U W=10.8U AS=3.888P AD=3.888P 
+ PS=22.32U PD=22.32U 
M262 mbk_sig57 mbk_sig265 vddi vddi TP L=0.18U W=10.8U AS=3.888P AD=3.888P 
+ PS=22.32U PD=22.32U 
M263 mbk_sig57 mbk_sig265 vddi vddi TP L=0.18U W=10.8U AS=3.888P AD=3.888P 
+ PS=22.32U PD=22.32U 
M264 vddi mbk_sig180 mbk_sig265 vddi TP L=0.18U W=10.8U AS=3.888P AD=3.888P 
+ PS=22.32U PD=22.32U 
M265 vddi mbk_sig265 mbk_sig57 vddi TP L=0.18U W=10.8U AS=3.888P AD=3.888P 
+ PS=22.32U PD=22.32U 
M266 mbk_sig180 npc vddi vddi TP L=0.18U W=10.8U AS=3.888P AD=3.888P PS=22.32U 
+ PD=22.32U 
M267 vdde mbk_sig469 ng vddi TP L=0.18U W=14.4U AS=5.184P AD=5.184P PS=29.52U 
+ PD=29.52U 
M268 ng mbk_sig469 vdde vddi TP L=0.18U W=14.4U AS=5.184P AD=5.184P PS=29.52U 
+ PD=29.52U 
M269 vdde mbk_sig469 ng vddi TP L=0.18U W=14.4U AS=5.184P AD=5.184P PS=29.52U 
+ PD=29.52U 
M270 ng mbk_sig469 vdde vddi TP L=0.18U W=14.4U AS=5.184P AD=5.184P PS=29.52U 
+ PD=29.52U 
M271 vdde mbk_sig469 ng vddi TP L=0.18U W=14.4U AS=5.184P AD=5.184P PS=29.52U 
+ PD=29.52U 
M272 ng mbk_sig469 vdde vddi TP L=0.18U W=14.4U AS=5.184P AD=5.184P PS=29.52U 
+ PD=29.52U 
M273 vdde mbk_sig469 ng vddi TP L=0.18U W=14.4U AS=5.184P AD=5.184P PS=29.52U 
+ PD=29.52U 
M274 ng mbk_sig469 vdde vddi TP L=0.18U W=14.4U AS=5.184P AD=5.184P PS=29.52U 
+ PD=29.52U 
M275 vdde mbk_sig469 ng vddi TP L=0.18U W=14.4U AS=5.184P AD=5.184P PS=29.52U 
+ PD=29.52U 
M276 ng mbk_sig469 vdde vddi TP L=0.18U W=14.4U AS=5.184P AD=5.184P PS=29.52U 
+ PD=29.52U 
M277 vdde mbk_sig469 ng vddi TP L=0.18U W=14.4U AS=5.184P AD=5.184P PS=29.52U 
+ PD=29.52U 
M278 ng mbk_sig469 vdde vddi TP L=0.18U W=14.4U AS=5.184P AD=5.184P PS=29.52U 
+ PD=29.52U 
M279 vdde mbk_sig469 ng vddi TP L=0.18U W=14.4U AS=5.184P AD=5.184P PS=29.52U 
+ PD=29.52U 
M280 ng mbk_sig469 vdde vddi TP L=0.18U W=14.4U AS=5.184P AD=5.184P PS=29.52U 
+ PD=29.52U 
M281 vdde mbk_sig469 ng vddi TP L=0.18U W=14.4U AS=5.184P AD=5.184P PS=29.52U 
+ PD=29.52U 
M282 ng mbk_sig469 vdde vddi TP L=0.18U W=14.4U AS=5.184P AD=5.184P PS=29.52U 
+ PD=29.52U 
M283 vdde mbk_sig469 ng vddi TP L=0.18U W=14.4U AS=5.184P AD=5.184P PS=29.52U 
+ PD=29.52U 
M284 ng mbk_sig469 vdde vddi TP L=0.18U W=14.4U AS=5.184P AD=5.184P PS=29.52U 
+ PD=29.52U 
M285 vdde mbk_sig469 ng vddi TP L=0.18U W=14.4U AS=5.184P AD=5.184P PS=29.52U 
+ PD=29.52U 
M286 ng mbk_sig469 vdde vddi TP L=0.18U W=14.4U AS=5.184P AD=5.184P PS=29.52U 
+ PD=29.52U 
M287 vdde mbk_sig469 ng vddi TP L=0.18U W=14.4U AS=5.184P AD=5.184P PS=29.52U 
+ PD=29.52U 
M288 ng mbk_sig469 vdde vddi TP L=0.18U W=14.4U AS=5.184P AD=5.184P PS=29.52U 
+ PD=29.52U 
M289 vdde mbk_sig469 ng vddi TP L=0.18U W=14.4U AS=5.184P AD=5.184P PS=29.52U 
+ PD=29.52U 
M290 ng mbk_sig469 vdde vddi TP L=0.18U W=14.4U AS=5.184P AD=5.184P PS=29.52U 
+ PD=29.52U 
M291 vddi mbk_sig480 mbk_sig469 vddi TP L=0.18U W=10.8U AS=3.888P AD=3.888P 
+ PS=22.32U PD=22.32U 
M292 mbk_sig469 mbk_sig480 vddi vddi TP L=0.18U W=10.8U AS=3.888P AD=3.888P 
+ PS=22.32U PD=22.32U 
M293 mbk_sig469 mbk_sig480 vddi vddi TP L=0.18U W=10.8U AS=3.888P AD=3.888P 
+ PS=22.32U PD=22.32U 
M294 vddi mbk_sig481 mbk_sig480 vddi TP L=0.18U W=10.8U AS=3.888P AD=3.888P 
+ PS=22.32U PD=22.32U 
M295 vddi mbk_sig480 mbk_sig469 vddi TP L=0.18U W=10.8U AS=3.888P AD=3.888P 
+ PS=22.32U PD=22.32U 
M296 mbk_sig481 ngc vddi vddi TP L=0.18U W=10.8U AS=3.888P AD=3.888P PS=22.32U 
+ PD=22.32U 
M297 r0 mbk_sig670 vdde vddi TP L=0.18U W=14.4U AS=5.184P AD=5.184P PS=29.52U 
+ PD=29.52U 
M298 vdde mbk_sig670 r0 vddi TP L=0.18U W=14.4U AS=5.184P AD=5.184P PS=29.52U 
+ PD=29.52U 
M299 r0 mbk_sig670 vdde vddi TP L=0.18U W=14.4U AS=5.184P AD=5.184P PS=29.52U 
+ PD=29.52U 
M300 vdde mbk_sig670 r0 vddi TP L=0.18U W=14.4U AS=5.184P AD=5.184P PS=29.52U 
+ PD=29.52U 
M301 vdde mbk_sig670 r0 vddi TP L=0.18U W=14.4U AS=5.184P AD=5.184P PS=29.52U 
+ PD=29.52U 
M302 r0 mbk_sig670 vdde vddi TP L=0.18U W=14.4U AS=5.184P AD=5.184P PS=29.52U 
+ PD=29.52U 
M303 vdde mbk_sig670 r0 vddi TP L=0.18U W=14.4U AS=5.184P AD=5.184P PS=29.52U 
+ PD=29.52U 
M304 r0 mbk_sig670 vdde vddi TP L=0.18U W=14.4U AS=5.184P AD=5.184P PS=29.52U 
+ PD=29.52U 
M305 vdde mbk_sig670 r0 vddi TP L=0.18U W=14.4U AS=5.184P AD=5.184P PS=29.52U 
+ PD=29.52U 
M306 r0 mbk_sig670 vdde vddi TP L=0.18U W=14.4U AS=5.184P AD=5.184P PS=29.52U 
+ PD=29.52U 
M307 vdde mbk_sig670 r0 vddi TP L=0.18U W=14.4U AS=5.184P AD=5.184P PS=29.52U 
+ PD=29.52U 
M308 r0 mbk_sig670 vdde vddi TP L=0.18U W=14.4U AS=5.184P AD=5.184P PS=29.52U 
+ PD=29.52U 
M309 vdde mbk_sig670 r0 vddi TP L=0.18U W=14.4U AS=5.184P AD=5.184P PS=29.52U 
+ PD=29.52U 
M310 r0 mbk_sig670 vdde vddi TP L=0.18U W=14.4U AS=5.184P AD=5.184P PS=29.52U 
+ PD=29.52U 
M311 vdde mbk_sig670 r0 vddi TP L=0.18U W=14.4U AS=5.184P AD=5.184P PS=29.52U 
+ PD=29.52U 
M312 r0 mbk_sig670 vdde vddi TP L=0.18U W=14.4U AS=5.184P AD=5.184P PS=29.52U 
+ PD=29.52U 
M313 vdde mbk_sig670 r0 vddi TP L=0.18U W=14.4U AS=5.184P AD=5.184P PS=29.52U 
+ PD=29.52U 
M314 r0 mbk_sig670 vdde vddi TP L=0.18U W=14.4U AS=5.184P AD=5.184P PS=29.52U 
+ PD=29.52U 
M315 vdde mbk_sig670 r0 vddi TP L=0.18U W=14.4U AS=5.184P AD=5.184P PS=29.52U 
+ PD=29.52U 
M316 r0 mbk_sig670 vdde vddi TP L=0.18U W=14.4U AS=5.184P AD=5.184P PS=29.52U 
+ PD=29.52U 