
.subckt ex_shift32 ext in_d_0 in_d_1 in_d_2 in_d_3 in_d_4 in_d_5 in_d_6 
+ in_d_7 in_d_8 in_d_9 in_d_10 in_d_11 in_d_12 in_d_13 in_d_14 in_d_15 in_d_16 
+ in_d_17 in_d_18 in_d_19 in_d_20 in_d_21 in_d_22 in_d_23 in_d_24 in_d_25 
+ in_d_26 in_d_27 in_d_28 in_d_29 in_d_30 in_d_31 in_s_0 in_s_1 in_s_2 in_s_3 
+ in_s_4 left out_d_0 out_d_1 out_d_2 out_d_3 out_d_4 out_d_5 out_d_6 out_d_7 
+ out_d_8 out_d_9 out_d_10 out_d_11 out_d_12 out_d_13 out_d_14 out_d_15 
+ out_d_16 out_d_17 out_d_18 out_d_19 out_d_20 out_d_21 out_d_22 out_d_23 
+ out_d_24 out_d_25 out_d_26 out_d_27 out_d_28 out_d_29 out_d_30 out_d_31 rot 
+ vdd vss 
Mtr_02828 bsrmux_0_shr bshmat_0_nshr vdd vdd TP L=0.18U W=9.72U AS=3.4992P 
+ AD=3.4992P PS=20.16U PD=20.16U 
Mtr_02827 vdd n5 n3 vdd TP L=0.18U W=1.08U AS=0.3888P AD=0.3888P PS=2.88U 
+ PD=2.88U 
Mtr_02826 n3 bshsel_0_nright vdd vdd TP L=0.18U W=1.08U AS=0.3888P AD=0.3888P 
+ PS=2.88U PD=2.88U 
Mtr_02825 n12 n3 vdd vdd TP L=0.18U W=3.6U AS=1.296P AD=1.296P PS=7.92U 
+ PD=7.92U 
Mtr_02824 vdd n11 bshcmd_0_nasr vdd TP L=0.18U W=3.6U AS=1.296P AD=1.296P 
+ PS=7.92U PD=7.92U 
Mtr_02823 n11 n12 vdd vdd TP L=0.18U W=1.08U AS=0.3888P AD=0.3888P PS=2.88U 
+ PD=2.88U 
Mtr_02822 vdd in_d_31 n11 vdd TP L=0.18U W=1.08U AS=0.3888P AD=0.3888P 
+ PS=2.88U PD=2.88U 
Mtr_02821 n11 ext vdd vdd TP L=0.18U W=1.08U AS=0.3888P AD=0.3888P PS=2.88U 
+ PD=2.88U 
Mtr_02820 n5 rot vdd vdd TP L=0.18U W=2.16U AS=0.7776P AD=0.7776P PS=5.04U 
+ PD=5.04U 
Mtr_02819 n9 bshlmx_0_nnleft vdd vdd TP L=0.18U W=1.08U AS=0.3888P AD=0.3888P 
+ PS=2.88U PD=2.88U 
Mtr_02818 vdd n5 n9 vdd TP L=0.18U W=1.08U AS=0.3888P AD=0.3888P PS=2.88U 
+ PD=2.88U 
Mtr_02817 bshmat_0_nshr n9 vdd vdd TP L=0.18U W=3.6U AS=1.296P AD=1.296P 
+ PS=7.92U PD=7.92U 
Mtr_02816 bshlmx_0_asr bshcmd_0_nasr vdd vdd TP L=0.18U W=9.72U AS=3.4992P 
+ AD=3.4992P PS=20.16U PD=20.16U 
Mtr_02815 vdd n12 bshlmx_0_lsl vdd TP L=0.18U W=9.72U AS=3.4992P AD=3.4992P 
+ PS=20.16U PD=20.16U 
Mtr_02814 bshmatr_0_comr0 bssnbl_15_zero vdd vdd TP L=0.18U W=9.72U AS=3.4992P 
+ AD=3.4992P PS=20.16U PD=20.16U 
Mtr_02813 vdd bshsel_0_nright n699 vdd TP L=0.18U W=9.72U AS=3.4992P 
+ AD=3.4992P PS=20.16U PD=20.16U 
Mtr_02812 n693 bshlmx_0_nnleft vdd vdd TP L=0.18U W=9.72U AS=3.4992P 
+ AD=3.4992P PS=20.16U PD=20.16U 
Mtr_02811 bshsel_0_nright left vdd vdd TP L=0.18U W=3.6U AS=1.296P AD=1.296P 
+ PS=7.92U PD=7.92U 
Mtr_02810 vdd bshsel_0_nright bshlmx_0_nnleft vdd TP L=0.18U W=3.6U AS=1.296P 
+ AD=1.296P PS=7.92U PD=7.92U 
Mtr_02809 vdd bsm_0_15_out_2_s out_d_30 vdd TP L=0.18U W=1.8U AS=0.648P 
+ AD=0.648P PS=4.32U PD=4.32U 
Mtr_02808 vdd bsoout_15_out_1_s out_d_31 vdd TP L=0.18U W=1.8U AS=0.648P 
+ AD=0.648P PS=4.32U PD=4.32U 
Mtr_02807 vdd out_d_31 bsoout_15_out_1_s vdd TP L=0.18U W=0.54U AS=0.1944P 
+ AD=0.1944P PS=1.8U PD=1.8U 
Mtr_02806 vdd out_d_30 bsm_0_15_out_2_s vdd TP L=0.18U W=0.54U AS=0.1944P 
+ AD=0.1944P PS=1.8U PD=1.8U 
Mtr_02805 vdd bsoout_14_out_2_s out_d_28 vdd TP L=0.18U W=1.8U AS=0.648P 
+ AD=0.648P PS=4.32U PD=4.32U 
Mtr_02804 vdd bsoout_14_out_1_s out_d_29 vdd TP L=0.18U W=1.8U AS=0.648P 
+ AD=0.648P PS=4.32U PD=4.32U 
Mtr_02803 vdd out_d_29 bsoout_14_out_1_s vdd TP L=0.18U W=0.54U AS=0.1944P 
+ AD=0.1944P PS=1.8U PD=1.8U 
Mtr_02802 vdd out_d_28 bsoout_14_out_2_s vdd TP L=0.18U W=0.54U AS=0.1944P 
+ AD=0.1944P PS=1.8U PD=1.8U 
Mtr_02801 vdd bsoout_13_out_2_s out_d_26 vdd TP L=0.18U W=1.8U AS=0.648P 
+ AD=0.648P PS=4.32U PD=4.32U 
Mtr_02800 vdd bsoout_13_out_1_s out_d_27 vdd TP L=0.18U W=1.8U AS=0.648P 
+ AD=0.648P PS=4.32U PD=4.32U 
Mtr_02799 vdd out_d_27 bsoout_13_out_1_s vdd TP L=0.18U W=0.54U AS=0.1944P 
+ AD=0.1944P PS=1.8U PD=1.8U 
Mtr_02798 vdd out_d_26 bsoout_13_out_2_s vdd TP L=0.18U W=0.54U AS=0.1944P 
+ AD=0.1944P PS=1.8U PD=1.8U 
Mtr_02797 vdd bsm_0_12_out_2_s out_d_24 vdd TP L=0.18U W=1.8U AS=0.648P 
+ AD=0.648P PS=4.32U PD=4.32U 
Mtr_02796 vdd bsoout_12_out_1_s out_d_25 vdd TP L=0.18U W=1.8U AS=0.648P 
+ AD=0.648P PS=4.32U PD=4.32U 
Mtr_02795 vdd out_d_25 bsoout_12_out_1_s vdd TP L=0.18U W=0.54U AS=0.1944P 
+ AD=0.1944P PS=1.8U PD=1.8U 
Mtr_02794 vdd out_d_24 bsm_0_12_out_2_s vdd TP L=0.18U W=0.54U AS=0.1944P 
+ AD=0.1944P PS=1.8U PD=1.8U 
Mtr_02793 vdd bsm_0_11_out_2_s out_d_22 vdd TP L=0.18U W=1.8U AS=0.648P 
+ AD=0.648P PS=4.32U PD=4.32U 
Mtr_02792 vdd bsoout_11_out_1_s out_d_23 vdd TP L=0.18U W=1.8U AS=0.648P 
+ AD=0.648P PS=4.32U PD=4.32U 
Mtr_02791 vdd out_d_23 bsoout_11_out_1_s vdd TP L=0.18U W=0.54U AS=0.1944P 
+ AD=0.1944P PS=1.8U PD=1.8U 
Mtr_02790 vdd out_d_22 bsm_0_11_out_2_s vdd TP L=0.18U W=0.54U AS=0.1944P 
+ AD=0.1944P PS=1.8U PD=1.8U 
Mtr_02789 vdd bsm_0_10_out_2_s out_d_20 vdd TP L=0.18U W=1.8U AS=0.648P 
+ AD=0.648P PS=4.32U PD=4.32U 
Mtr_02788 vdd bsoout_10_out_1_s out_d_21 vdd TP L=0.18U W=1.8U AS=0.648P 
+ AD=0.648P PS=4.32U PD=4.32U 
Mtr_02787 vdd out_d_21 bsoout_10_out_1_s vdd TP L=0.18U W=0.54U AS=0.1944P 
+ AD=0.1944P PS=1.8U PD=1.8U 
Mtr_02786 vdd out_d_20 bsm_0_10_out_2_s vdd TP L=0.18U W=0.54U AS=0.1944P 
+ AD=0.1944P PS=1.8U PD=1.8U 
Mtr_02785 vdd bsm_0_9_out_2_s out_d_18 vdd TP L=0.18U W=1.8U AS=0.648P 
+ AD=0.648P PS=4.32U PD=4.32U 
Mtr_02784 vdd bsoout_9_out_1_s out_d_19 vdd TP L=0.18U W=1.8U AS=0.648P 
+ AD=0.648P PS=4.32U PD=4.32U 
Mtr_02783 vdd out_d_19 bsoout_9_out_1_s vdd TP L=0.18U W=0.54U AS=0.1944P 
+ AD=0.1944P PS=1.8U PD=1.8U 
Mtr_02782 vdd out_d_18 bsm_0_9_out_2_s vdd TP L=0.18U W=0.54U AS=0.1944P 
+ AD=0.1944P PS=1.8U PD=1.8U 
Mtr_02781 vdd bsoout_8_out_2_s out_d_16 vdd TP L=0.18U W=1.8U AS=0.648P 
+ AD=0.648P PS=4.32U PD=4.32U 
Mtr_02780 vdd bsoout_8_out_1_s out_d_17 vdd TP L=0.18U W=1.8U AS=0.648P 
+ AD=0.648P PS=4.32U PD=4.32U 
Mtr_02779 vdd out_d_17 bsoout_8_out_1_s vdd TP L=0.18U W=0.54U AS=0.1944P 
+ AD=0.1944P PS=1.8U PD=1.8U 
Mtr_02778 vdd out_d_16 bsoout_8_out_2_s vdd TP L=0.18U W=0.54U AS=0.1944P 
+ AD=0.1944P PS=1.8U PD=1.8U 
Mtr_02777 vdd bsm_0_7_out_2_s out_d_14 vdd TP L=0.18U W=1.8U AS=0.648P 
+ AD=0.648P PS=4.32U PD=4.32U 
Mtr_02776 vdd bsoout_7_out_1_s out_d_15 vdd TP L=0.18U W=1.8U AS=0.648P 
+ AD=0.648P PS=4.32U PD=4.32U 
Mtr_02775 vdd out_d_15 bsoout_7_out_1_s vdd TP L=0.18U W=0.54U AS=0.1944P 
+ AD=0.1944P PS=1.8U PD=1.8U 
Mtr_02774 vdd out_d_14 bsm_0_7_out_2_s vdd TP L=0.18U W=0.54U AS=0.1944P 
+ AD=0.1944P PS=1.8U PD=1.8U 
Mtr_02773 vdd bsm_0_6_out_2_s out_d_12 vdd TP L=0.18U W=1.8U AS=0.648P 
+ AD=0.648P PS=4.32U PD=4.32U 
Mtr_02772 vdd bsoout_6_out_1_s out_d_13 vdd TP L=0.18U W=1.8U AS=0.648P 
+ AD=0.648P PS=4.32U PD=4.32U 
Mtr_02771 vdd out_d_13 bsoout_6_out_1_s vdd TP L=0.18U W=0.54U AS=0.1944P 
+ AD=0.1944P PS=1.8U PD=1.8U 
Mtr_02770 vdd out_d_12 bsm_0_6_out_2_s vdd TP L=0.18U W=0.54U AS=0.1944P 
+ AD=0.1944P PS=1.8U PD=1.8U 
Mtr_02769 vdd bsm_0_5_out_2_s out_d_10 vdd TP L=0.18U W=1.8U AS=0.648P 
+ AD=0.648P PS=4.32U PD=4.32U 
Mtr_02768 vdd bsoout_5_out_1_s out_d_11 vdd TP L=0.18U W=1.8U AS=0.648P 
+ AD=0.648P PS=4.32U PD=4.32U 
Mtr_02767 vdd out_d_11 bsoout_5_out_1_s vdd TP L=0.18U W=0.54U AS=0.1944P 
+ AD=0.1944P PS=1.8U PD=1.8U 
Mtr_02766 vdd out_d_10 bsm_0_5_out_2_s vdd TP L=0.18U W=0.54U AS=0.1944P 
+ AD=0.1944P PS=1.8U PD=1.8U 
Mtr_02765 vdd bsm_0_4_out_2_s out_d_8 vdd TP L=0.18U W=1.8U AS=0.648P 
+ AD=0.648P PS=4.32U PD=4.32U 
Mtr_02764 vdd bsoout_4_out_1_s out_d_9 vdd TP L=0.18U W=1.8U AS=0.648P 
+ AD=0.648P PS=4.32U PD=4.32U 
Mtr_02763 vdd out_d_9 bsoout_4_out_1_s vdd TP L=0.18U W=0.54U AS=0.1944P 
+ AD=0.1944P PS=1.8U PD=1.8U 
Mtr_02762 vdd out_d_8 bsm_0_4_out_2_s vdd TP L=0.18U W=0.54U AS=0.1944P 
+ AD=0.1944P PS=1.8U PD=1.8U 
Mtr_02761 vdd bsoout_3_out_2_s out_d_6 vdd TP L=0.18U W=1.8U AS=0.648P 
+ AD=0.648P PS=4.32U PD=4.32U 
Mtr_02760 vdd bsoout_3_out_1_s out_d_7 vdd TP L=0.18U W=1.8U AS=0.648P 
+ AD=0.648P PS=4.32U PD=4.32U 
Mtr_02759 vdd out_d_7 bsoout_3_out_1_s vdd TP L=0.18U W=0.54U AS=0.1944P 
+ AD=0.1944P PS=1.8U PD=1.8U 
Mtr_02758 vdd out_d_6 bsoout_3_out_2_s vdd TP L=0.18U W=0.54U AS=0.1944P 
+ AD=0.1944P PS=1.8U PD=1.8U 
Mtr_02757 vdd bsm_0_2_out_2_s out_d_4 vdd TP L=0.18U W=1.8U AS=0.648P 
+ AD=0.648P PS=4.32U PD=4.32U 
Mtr_02756 vdd bsoout_2_out_1_s out_d_5 vdd TP L=0.18U W=1.8U AS=0.648P 
+ AD=0.648P PS=4.32U PD=4.32U 
Mtr_02755 vdd out_d_5 bsoout_2_out_1_s vdd TP L=0.18U W=0.54U AS=0.1944P 
+ AD=0.1944P PS=1.8U PD=1.8U 
Mtr_02754 vdd out_d_4 bsm_0_2_out_2_s vdd TP L=0.18U W=0.54U AS=0.1944P 
+ AD=0.1944P PS=1.8U PD=1.8U 
Mtr_02753 vdd bsm_0_1_out_2_s out_d_2 vdd TP L=0.18U W=1.8U AS=0.648P 
+ AD=0.648P PS=4.32U PD=4.32U 
Mtr_02752 vdd bsoout_1_out_1_s out_d_3 vdd TP L=0.18U W=1.8U AS=0.648P 
+ AD=0.648P PS=4.32U PD=4.32U 
Mtr_02751 vdd out_d_3 bsoout_1_out_1_s vdd TP L=0.18U W=0.54U AS=0.1944P 
+ AD=0.1944P PS=1.8U PD=1.8U 
Mtr_02750 vdd out_d_2 bsm_0_1_out_2_s vdd TP L=0.18U W=0.54U AS=0.1944P 
+ AD=0.1944P PS=1.8U PD=1.8U 
Mtr_02749 vdd bsm_0_0_out_2_s out_d_0 vdd TP L=0.18U W=1.8U AS=0.648P 
+ AD=0.648P PS=4.32U PD=4.32U 
Mtr_02748 vdd bsoout_0_out_1_s out_d_1 vdd TP L=0.18U W=1.8U AS=0.648P 
+ AD=0.648P PS=4.32U PD=4.32U 
Mtr_02747 vdd out_d_1 bsoout_0_out_1_s vdd TP L=0.18U W=0.54U AS=0.1944P 
+ AD=0.1944P PS=1.8U PD=1.8U 
Mtr_02746 vdd out_d_0 bsm_0_0_out_2_s vdd TP L=0.18U W=0.54U AS=0.1944P 
+ AD=0.1944P PS=1.8U PD=1.8U 
Mtr_02745 vdd n38 n681 vdd TP L=0.18U W=3.6U AS=1.296P AD=1.296P PS=7.92U 
+ PD=7.92U 
Mtr_02744 n681 n38 vdd vdd TP L=0.18U W=3.6U AS=1.296P AD=1.296P PS=7.92U 
+ PD=7.92U 
Mtr_02743 vdd n28 bsrmux_15_f1 vdd TP L=0.18U W=3.6U AS=1.296P AD=1.296P 
+ PS=7.92U PD=7.92U 
Mtr_02742 bsrmux_15_f1 n28 vdd vdd TP L=0.18U W=3.6U AS=1.296P AD=1.296P 
+ PS=7.92U PD=7.92U 
Mtr_02741 vdd n38 n681 vdd TP L=0.18U W=3.6U AS=1.296P AD=1.296P PS=7.92U 
+ PD=7.92U 
Mtr_02740 vdd n36 n38 vdd TP L=0.18U W=3.6U AS=1.296P AD=1.296P PS=7.92U 
+ PD=7.92U 
Mtr_02739 n36 in_d_30 vdd vdd TP L=0.18U W=1.08U AS=0.3888P AD=0.3888P 
+ PS=2.88U PD=2.88U 
Mtr_02738 vdd bsrmux_0_shr n36 vdd TP L=0.18U W=1.08U AS=0.3888P AD=0.3888P 
+ PS=2.88U PD=2.88U 
Mtr_02737 vdd n28 bsrmux_15_f1 vdd TP L=0.18U W=3.6U AS=1.296P AD=1.296P 
+ PS=7.92U PD=7.92U 
Mtr_02736 vdd n27 n28 vdd TP L=0.18U W=3.6U AS=1.296P AD=1.296P PS=7.92U 
+ PD=7.92U 
Mtr_02735 n27 in_d_31 vdd vdd TP L=0.18U W=1.08U AS=0.3888P AD=0.3888P 
+ PS=2.88U PD=2.88U 
Mtr_02734 vdd bsrmux_0_shr n27 vdd TP L=0.18U W=1.08U AS=0.3888P AD=0.3888P 
+ PS=2.88U PD=2.88U 
Mtr_02733 vdd n79 n676 vdd TP L=0.18U W=3.6U AS=1.296P AD=1.296P PS=7.92U 
+ PD=7.92U 
Mtr_02732 n676 n79 vdd vdd TP L=0.18U W=3.6U AS=1.296P AD=1.296P PS=7.92U 
+ PD=7.92U 
Mtr_02731 vdd n66 bsrmux_14_f1 vdd TP L=0.18U W=3.6U AS=1.296P AD=1.296P 
+ PS=7.92U PD=7.92U 
Mtr_02730 bsrmux_14_f1 n66 vdd vdd TP L=0.18U W=3.6U AS=1.296P AD=1.296P 
+ PS=7.92U PD=7.92U 
Mtr_02729 vdd n79 n676 vdd TP L=0.18U W=3.6U AS=1.296P AD=1.296P PS=7.92U 
+ PD=7.92U 
Mtr_02728 vdd n78 n79 vdd TP L=0.18U W=3.6U AS=1.296P AD=1.296P PS=7.92U 
+ PD=7.92U 
Mtr_02727 n78 in_d_28 vdd vdd TP L=0.18U W=1.08U AS=0.3888P AD=0.3888P 
+ PS=2.88U PD=2.88U 
Mtr_02726 vdd bsrmux_0_shr n78 vdd TP L=0.18U W=1.08U AS=0.3888P AD=0.3888P 
+ PS=2.88U PD=2.88U 
Mtr_02725 vdd n66 bsrmux_14_f1 vdd TP L=0.18U W=3.6U AS=1.296P AD=1.296P 
+ PS=7.92U PD=7.92U 
Mtr_02724 vdd n65 n66 vdd TP L=0.18U W=3.6U AS=1.296P AD=1.296P PS=7.92U 
+ PD=7.92U 
Mtr_02723 n65 in_d_29 vdd vdd TP L=0.18U W=1.08U AS=0.3888P AD=0.3888P 
+ PS=2.88U PD=2.88U 
Mtr_02722 vdd bsrmux_0_shr n65 vdd TP L=0.18U W=1.08U AS=0.3888P AD=0.3888P 
+ PS=2.88U PD=2.88U 
Mtr_02721 vdd n114 n673 vdd TP L=0.18U W=3.6U AS=1.296P AD=1.296P PS=7.92U 
+ PD=7.92U 
Mtr_02720 n673 n114 vdd vdd TP L=0.18U W=3.6U AS=1.296P AD=1.296P PS=7.92U 
+ PD=7.92U 
Mtr_02719 vdd n105 bsrmux_13_f1 vdd TP L=0.18U W=3.6U AS=1.296P AD=1.296P 
+ PS=7.92U PD=7.92U 
Mtr_02718 bsrmux_13_f1 n105 vdd vdd TP L=0.18U W=3.6U AS=1.296P AD=1.296P 
+ PS=7.92U PD=7.92U 
Mtr_02717 vdd n114 n673 vdd TP L=0.18U W=3.6U AS=1.296P AD=1.296P PS=7.92U 
+ PD=7.92U 
Mtr_02716 vdd n112 n114 vdd TP L=0.18U W=3.6U AS=1.296P AD=1.296P PS=7.92U 
+ PD=7.92U 
Mtr_02715 n112 in_d_26 vdd vdd TP L=0.18U W=1.08U AS=0.3888P AD=0.3888P 
+ PS=2.88U PD=2.88U 
Mtr_02714 vdd bsrmux_0_shr n112 vdd TP L=0.18U W=1.08U AS=0.3888P AD=0.3888P 
+ PS=2.88U PD=2.88U 
Mtr_02713 vdd n105 bsrmux_13_f1 vdd TP L=0.18U W=3.6U AS=1.296P AD=1.296P 
+ PS=7.92U PD=7.92U 
Mtr_02712 vdd n104 n105 vdd TP L=0.18U W=3.6U AS=1.296P AD=1.296P PS=7.92U 
+ PD=7.92U 
Mtr_02711 n104 in_d_27 vdd vdd TP L=0.18U W=1.08U AS=0.3888P AD=0.3888P 
+ PS=2.88U PD=2.88U 
Mtr_02710 vdd bsrmux_0_shr n104 vdd TP L=0.18U W=1.08U AS=0.3888P AD=0.3888P 
+ PS=2.88U PD=2.88U 
Mtr_02709 vdd n153 n671 vdd TP L=0.18U W=3.6U AS=1.296P AD=1.296P PS=7.92U 
+ PD=7.92U 
Mtr_02708 n671 n153 vdd vdd TP L=0.18U W=3.6U AS=1.296P AD=1.296P PS=7.92U 
+ PD=7.92U 
Mtr_02707 vdd n145 bsrmux_12_f1 vdd TP L=0.18U W=3.6U AS=1.296P AD=1.296P 
+ PS=7.92U PD=7.92U 
Mtr_02706 bsrmux_12_f1 n145 vdd vdd TP L=0.18U W=3.6U AS=1.296P AD=1.296P 
+ PS=7.92U PD=7.92U 
Mtr_02705 vdd n153 n671 vdd TP L=0.18U W=3.6U AS=1.296P AD=1.296P PS=7.92U 
+ PD=7.92U 
Mtr_02704 vdd n151 n153 vdd TP L=0.18U W=3.6U AS=1.296P AD=1.296P PS=7.92U 
+ PD=7.92U 
Mtr_02703 n151 in_d_24 vdd vdd TP L=0.18U W=1.08U AS=0.3888P AD=0.3888P 
+ PS=2.88U PD=2.88U 
Mtr_02702 vdd bsrmux_0_shr n151 vdd TP L=0.18U W=1.08U AS=0.3888P AD=0.3888P 
+ PS=2.88U PD=2.88U 
Mtr_02701 vdd n145 bsrmux_12_f1 vdd TP L=0.18U W=3.6U AS=1.296P AD=1.296P 
+ PS=7.92U PD=7.92U 
Mtr_02700 vdd n144 n145 vdd TP L=0.18U W=3.6U AS=1.296P AD=1.296P PS=7.92U 
+ PD=7.92U 
Mtr_02699 n144 in_d_25 vdd vdd TP L=0.18U W=1.08U AS=0.3888P AD=0.3888P 
+ PS=2.88U PD=2.88U 
Mtr_02698 vdd bsrmux_0_shr n144 vdd TP L=0.18U W=1.08U AS=0.3888P AD=0.3888P 
+ PS=2.88U PD=2.88U 
Mtr_02697 vdd n191 n666 vdd TP L=0.18U W=3.6U AS=1.296P AD=1.296P PS=7.92U 
+ PD=7.92U 
Mtr_02696 n666 n191 vdd vdd TP L=0.18U W=3.6U AS=1.296P AD=1.296P PS=7.92U 
+ PD=7.92U 
Mtr_02695 vdd n180 bsrmux_11_f1 vdd TP L=0.18U W=3.6U AS=1.296P AD=1.296P 
+ PS=7.92U PD=7.92U 
Mtr_02694 bsrmux_11_f1 n180 vdd vdd TP L=0.18U W=3.6U AS=1.296P AD=1.296P 
+ PS=7.92U PD=7.92U 
Mtr_02693 vdd n191 n666 vdd TP L=0.18U W=3.6U AS=1.296P AD=1.296P PS=7.92U 
+ PD=7.92U 
Mtr_02692 vdd n189 n191 vdd TP L=0.18U W=3.6U AS=1.296P AD=1.296P PS=7.92U 
+ PD=7.92U 
Mtr_02691 n189 in_d_22 vdd vdd TP L=0.18U W=1.08U AS=0.3888P AD=0.3888P 
+ PS=2.88U PD=2.88U 
Mtr_02690 vdd bsrmux_0_shr n189 vdd TP L=0.18U W=1.08U AS=0.3888P AD=0.3888P 
+ PS=2.88U PD=2.88U 
Mtr_02689 vdd n180 bsrmux_11_f1 vdd TP L=0.18U W=3.6U AS=1.296P AD=1.296P 
+ PS=7.92U PD=7.92U 
Mtr_02688 vdd n179 n180 vdd TP L=0.18U W=3.6U AS=1.296P AD=1.296P PS=7.92U 
+ PD=7.92U 
Mtr_02687 n179 in_d_23 vdd vdd TP L=0.18U W=1.08U AS=0.3888P AD=0.3888P 
+ PS=2.88U PD=2.88U 
Mtr_02686 vdd bsrmux_0_shr n179 vdd TP L=0.18U W=1.08U AS=0.3888P AD=0.3888P 
+ PS=2.88U PD=2.88U 
Mtr_02685 vdd n229 n662 vdd TP L=0.18U W=3.6U AS=1.296P AD=1.296P PS=7.92U 
+ PD=7.92U 
Mtr_02684 n662 n229 vdd vdd TP L=0.18U W=3.6U AS=1.296P AD=1.296P PS=7.92U 
+ PD=7.92U 
Mtr_02683 vdd n218 bsrmux_10_f1 vdd TP L=0.18U W=3.6U AS=1.296P AD=1.296P 
+ PS=7.92U PD=7.92U 
Mtr_02682 bsrmux_10_f1 n218 vdd vdd TP L=0.18U W=3.6U AS=1.296P AD=1.296P 
+ PS=7.92U PD=7.92U 
Mtr_02681 vdd n229 n662 vdd TP L=0.18U W=3.6U AS=1.296P AD=1.296P PS=7.92U 
+ PD=7.92U 
Mtr_02680 vdd n227 n229 vdd TP L=0.18U W=3.6U AS=1.296P AD=1.296P PS=7.92U 
+ PD=7.92U 
Mtr_02679 n227 in_d_20 vdd vdd TP L=0.18U W=1.08U AS=0.3888P AD=0.3888P 
+ PS=2.88U PD=2.88U 
Mtr_02678 vdd bsrmux_0_shr n227 vdd TP L=0.18U W=1.08U AS=0.3888P AD=0.3888P 
+ PS=2.88U PD=2.88U 
Mtr_02677 vdd n218 bsrmux_10_f1 vdd TP L=0.18U W=3.6U AS=1.296P AD=1.296P 
+ PS=7.92U PD=7.92U 
Mtr_02676 vdd n217 n218 vdd TP L=0.18U W=3.6U AS=1.296P AD=1.296P PS=7.92U 
+ PD=7.92U 
Mtr_02675 n217 in_d_21 vdd vdd TP L=0.18U W=1.08U AS=0.3888P AD=0.3888P 
+ PS=2.88U PD=2.88U 
Mtr_02674 vdd bsrmux_0_shr n217 vdd TP L=0.18U W=1.08U AS=0.3888P AD=0.3888P 
+ PS=2.88U PD=2.88U 
Mtr_02673 vdd n267 n656 vdd TP L=0.18U W=3.6U AS=1.296P AD=1.296P PS=7.92U 
+ PD=7.92U 
Mtr_02672 n656 n267 vdd vdd TP L=0.18U W=3.6U AS=1.296P AD=1.296P PS=7.92U 
+ PD=7.92U 
Mtr_02671 vdd n256 bsrmux_9_f1 vdd TP L=0.18U W=3.6U AS=1.296P AD=1.296P 
+ PS=7.92U PD=7.92U 
Mtr_02670 bsrmux_9_f1 n256 vdd vdd TP L=0.18U W=3.6U AS=1.296P AD=1.296P 
+ PS=7.92U PD=7.92U 
Mtr_02669 vdd n267 n656 vdd TP L=0.18U W=3.6U AS=1.296P AD=1.296P PS=7.92U 
+ PD=7.92U 
Mtr_02668 vdd n266 n267 vdd TP L=0.18U W=3.6U AS=1.296P AD=1.296P PS=7.92U 
+ PD=7.92U 
Mtr_02667 n266 in_d_18 vdd vdd TP L=0.18U W=1.08U AS=0.3888P AD=0.3888P 
+ PS=2.88U PD=2.88U 
Mtr_02666 vdd bsrmux_0_shr n266 vdd TP L=0.18U W=1.08U AS=0.3888P AD=0.3888P 
+ PS=2.88U PD=2.88U 
Mtr_02665 vdd n256 bsrmux_9_f1 vdd TP L=0.18U W=3.6U AS=1.296P AD=1.296P 
+ PS=7.92U PD=7.92U 
Mtr_02664 vdd n255 n256 vdd TP L=0.18U W=3.6U AS=1.296P AD=1.296P PS=7.92U 
+ PD=7.92U 
Mtr_02663 n255 in_d_19 vdd vdd TP L=0.18U W=1.08U AS=0.3888P AD=0.3888P 
+ PS=2.88U PD=2.88U 
Mtr_02662 vdd bsrmux_0_shr n255 vdd TP L=0.18U W=1.08U AS=0.3888P AD=0.3888P 
+ PS=2.88U PD=2.88U 
Mtr_02661 vdd n304 n653 vdd TP L=0.18U W=3.6U AS=1.296P AD=1.296P PS=7.92U 
+ PD=7.92U 
Mtr_02660 n653 n304 vdd vdd TP L=0.18U W=3.6U AS=1.296P AD=1.296P PS=7.92U 
+ PD=7.92U 
Mtr_02659 vdd n294 bsrmux_8_f1 vdd TP L=0.18U W=3.6U AS=1.296P AD=1.296P 
+ PS=7.92U PD=7.92U 
Mtr_02658 bsrmux_8_f1 n294 vdd vdd TP L=0.18U W=3.6U AS=1.296P AD=1.296P 
+ PS=7.92U PD=7.92U 
Mtr_02657 vdd n304 n653 vdd TP L=0.18U W=3.6U AS=1.296P AD=1.296P PS=7.92U 
+ PD=7.92U 
Mtr_02656 vdd n302 n304 vdd TP L=0.18U W=3.6U AS=1.296P AD=1.296P PS=7.92U 
+ PD=7.92U 
Mtr_02655 n302 in_d_16 vdd vdd TP L=0.18U W=1.08U AS=0.3888P AD=0.3888P 
+ PS=2.88U PD=2.88U 
Mtr_02654 vdd bsrmux_0_shr n302 vdd TP L=0.18U W=1.08U AS=0.3888P AD=0.3888P 
+ PS=2.88U PD=2.88U 
Mtr_02653 vdd n294 bsrmux_8_f1 vdd TP L=0.18U W=3.6U AS=1.296P AD=1.296P 
+ PS=7.92U PD=7.92U 
Mtr_02652 vdd n293 n294 vdd TP L=0.18U W=3.6U AS=1.296P AD=1.296P PS=7.92U 
+ PD=7.92U 
Mtr_02651 n293 in_d_17 vdd vdd TP L=0.18U W=1.08U AS=0.3888P AD=0.3888P 
+ PS=2.88U PD=2.88U 
Mtr_02650 vdd bsrmux_0_shr n293 vdd TP L=0.18U W=1.08U AS=0.3888P AD=0.3888P 
+ PS=2.88U PD=2.88U 
Mtr_02649 vdd n343 n652 vdd TP L=0.18U W=3.6U AS=1.296P AD=1.296P PS=7.92U 
+ PD=7.92U 
Mtr_02648 n652 n343 vdd vdd TP L=0.18U W=3.6U AS=1.296P AD=1.296P PS=7.92U 
+ PD=7.92U 
Mtr_02647 vdd n334 bsrmux_7_f1 vdd TP L=0.18U W=3.6U AS=1.296P AD=1.296P 
+ PS=7.92U PD=7.92U 
Mtr_02646 bsrmux_7_f1 n334 vdd vdd TP L=0.18U W=3.6U AS=1.296P AD=1.296P 
+ PS=7.92U PD=7.92U 
Mtr_02645 vdd n343 n652 vdd TP L=0.18U W=3.6U AS=1.296P AD=1.296P PS=7.92U 
+ PD=7.92U 
Mtr_02644 vdd n341 n343 vdd TP L=0.18U W=3.6U AS=1.296P AD=1.296P PS=7.92U 
+ PD=7.92U 
Mtr_02643 n341 in_d_14 vdd vdd TP L=0.18U W=1.08U AS=0.3888P AD=0.3888P 
+ PS=2.88U PD=2.88U 
Mtr_02642 vdd bsrmux_0_shr n341 vdd TP L=0.18U W=1.08U AS=0.3888P AD=0.3888P 
+ PS=2.88U PD=2.88U 
Mtr_02641 vdd n334 bsrmux_7_f1 vdd TP L=0.18U W=3.6U AS=1.296P AD=1.296P 
+ PS=7.92U PD=7.92U 
Mtr_02640 vdd n333 n334 vdd TP L=0.18U W=3.6U AS=1.296P AD=1.296P PS=7.92U 
+ PD=7.92U 
Mtr_02639 n333 in_d_15 vdd vdd TP L=0.18U W=1.08U AS=0.3888P AD=0.3888P 
+ PS=2.88U PD=2.88U 
Mtr_02638 vdd bsrmux_0_shr n333 vdd TP L=0.18U W=1.08U AS=0.3888P AD=0.3888P 
+ PS=2.88U PD=2.88U 
Mtr_02637 vdd n381 n646 vdd TP L=0.18U W=3.6U AS=1.296P AD=1.296P PS=7.92U 
+ PD=7.92U 
Mtr_02636 n646 n381 vdd vdd TP L=0.18U W=3.6U AS=1.296P AD=1.296P PS=7.92U 
+ PD=7.92U 
Mtr_02635 vdd n370 bsrmux_6_f1 vdd TP L=0.18U W=3.6U AS=1.296P AD=1.296P 
+ PS=7.92U PD=7.92U 
Mtr_02634 bsrmux_6_f1 n370 vdd vdd TP L=0.18U W=3.6U AS=1.296P AD=1.296P 
+ PS=7.92U PD=7.92U 
Mtr_02633 vdd n381 n646 vdd TP L=0.18U W=3.6U AS=1.296P AD=1.296P PS=7.92U 
+ PD=7.92U 
Mtr_02632 vdd n379 n381 vdd TP L=0.18U W=3.6U AS=1.296P AD=1.296P PS=7.92U 
+ PD=7.92U 
Mtr_02631 n379 in_d_12 vdd vdd TP L=0.18U W=1.08U AS=0.3888P AD=0.3888P 
+ PS=2.88U PD=2.88U 
Mtr_02630 vdd bsrmux_0_shr n379 vdd TP L=0.18U W=1.08U AS=0.3888P AD=0.3888P 
+ PS=2.88U PD=2.88U 
Mtr_02629 vdd n370 bsrmux_6_f1 vdd TP L=0.18U W=3.6U AS=1.296P AD=1.296P 
+ PS=7.92U PD=7.92U 
Mtr_02628 vdd n369 n370 vdd TP L=0.18U W=3.6U AS=1.296P AD=1.296P PS=7.92U 
+ PD=7.92U 
Mtr_02627 n369 in_d_13 vdd vdd TP L=0.18U W=1.08U AS=0.3888P AD=0.3888P 
+ PS=2.88U PD=2.88U 
Mtr_02626 vdd bsrmux_0_shr n369 vdd TP L=0.18U W=1.08U AS=0.3888P AD=0.3888P 
+ PS=2.88U PD=2.88U 
Mtr_02625 vdd n419 n641 vdd TP L=0.18U W=3.6U AS=1.296P AD=1.296P PS=7.92U 
+ PD=7.92U 
Mtr_02624 n641 n419 vdd vdd TP L=0.18U W=3.6U AS=1.296P AD=1.296P PS=7.92U 
+ PD=7.92U 
Mtr_02623 vdd n408 bsrmux_5_f1 vdd TP L=0.18U W=3.6U AS=1.296P AD=1.296P 
+ PS=7.92U PD=7.92U 
Mtr_02622 bsrmux_5_f1 n408 vdd vdd TP L=0.18U W=3.6U AS=1.296P AD=1.296P 
+ PS=7.92U PD=7.92U 
Mtr_02621 vdd n419 n641 vdd TP L=0.18U W=3.6U AS=1.296P AD=1.296P PS=7.92U 
+ PD=7.92U 
Mtr_02620 vdd n417 n419 vdd TP L=0.18U W=3.6U AS=1.296P AD=1.296P PS=7.92U 
+ PD=7.92U 
Mtr_02619 n417 in_d_10 vdd vdd TP L=0.18U W=1.08U AS=0.3888P AD=0.3888P 
+ PS=2.88U PD=2.88U 
Mtr_02618 vdd bsrmux_0_shr n417 vdd TP L=0.18U W=1.08U AS=0.3888P AD=0.3888P 
+ PS=2.88U PD=2.88U 
Mtr_02617 vdd n408 bsrmux_5_f1 vdd TP L=0.18U W=3.6U AS=1.296P AD=1.296P 
+ PS=7.92U PD=7.92U 
Mtr_02616 vdd n407 n408 vdd TP L=0.18U W=3.6U AS=1.296P AD=1.296P PS=7.92U 
+ PD=7.92U 
Mtr_02615 n407 in_d_11 vdd vdd TP L=0.18U W=1.08U AS=0.3888P AD=0.3888P 
+ PS=2.88U PD=2.88U 
Mtr_02614 vdd bsrmux_0_shr n407 vdd TP L=0.18U W=1.08U AS=0.3888P AD=0.3888P 
+ PS=2.88U PD=2.88U 
Mtr_02613 vdd n457 n636 vdd TP L=0.18U W=3.6U AS=1.296P AD=1.296P PS=7.92U 
+ PD=7.92U 
Mtr_02612 n636 n457 vdd vdd TP L=0.18U W=3.6U AS=1.296P AD=1.296P PS=7.92U 
+ PD=7.92U 
Mtr_02611 vdd n446 bsrmux_4_f1 vdd TP L=0.18U W=3.6U AS=1.296P AD=1.296P 
+ PS=7.92U PD=7.92U 
Mtr_02610 bsrmux_4_f1 n446 vdd vdd TP L=0.18U W=3.6U AS=1.296P AD=1.296P 
+ PS=7.92U PD=7.92U 
Mtr_02609 vdd n457 n636 vdd TP L=0.18U W=3.6U AS=1.296P AD=1.296P PS=7.92U 
+ PD=7.92U 
Mtr_02608 vdd n455 n457 vdd TP L=0.18U W=3.6U AS=1.296P AD=1.296P PS=7.92U 
+ PD=7.92U 
Mtr_02607 n455 in_d_8 vdd vdd TP L=0.18U W=1.08U AS=0.3888P AD=0.3888P 
+ PS=2.88U PD=2.88U 
Mtr_02606 vdd bsrmux_0_shr n455 vdd TP L=0.18U W=1.08U AS=0.3888P AD=0.3888P 
+ PS=2.88U PD=2.88U 
Mtr_02605 vdd n446 bsrmux_4_f1 vdd TP L=0.18U W=3.6U AS=1.296P AD=1.296P 
+ PS=7.92U PD=7.92U 
Mtr_02604 vdd n445 n446 vdd TP L=0.18U W=3.6U AS=1.296P AD=1.296P PS=7.92U 
+ PD=7.92U 
Mtr_02603 n445 in_d_9 vdd vdd TP L=0.18U W=1.08U AS=0.3888P AD=0.3888P 
+ PS=2.88U PD=2.88U 
Mtr_02602 vdd bsrmux_0_shr n445 vdd TP L=0.18U W=1.08U AS=0.3888P AD=0.3888P 
+ PS=2.88U PD=2.88U 
Mtr_02601 vdd n501 n633 vdd TP L=0.18U W=3.6U AS=1.296P AD=1.296P PS=7.92U 
+ PD=7.92U 
Mtr_02600 n633 n501 vdd vdd TP L=0.18U W=3.6U AS=1.296P AD=1.296P PS=7.92U 
+ PD=7.92U 
Mtr_02599 vdd n487 bsrmux_3_f1 vdd TP L=0.18U W=3.6U AS=1.296P AD=1.296P 
+ PS=7.92U PD=7.92U 
Mtr_02598 bsrmux_3_f1 n487 vdd vdd TP L=0.18U W=3.6U AS=1.296P AD=1.296P 
+ PS=7.92U PD=7.92U 
Mtr_02597 vdd n501 n633 vdd TP L=0.18U W=3.6U AS=1.296P AD=1.296P PS=7.92U 
+ PD=7.92U 
Mtr_02596 vdd n500 n501 vdd TP L=0.18U W=3.6U AS=1.296P AD=1.296P PS=7.92U 
+ PD=7.92U 
Mtr_02595 n500 in_d_6 vdd vdd TP L=0.18U W=1.08U AS=0.3888P AD=0.3888P 
+ PS=2.88U PD=2.88U 
Mtr_02594 vdd bsrmux_0_shr n500 vdd TP L=0.18U W=1.08U AS=0.3888P AD=0.3888P 
+ PS=2.88U PD=2.88U 
Mtr_02593 vdd n487 bsrmux_3_f1 vdd TP L=0.18U W=3.6U AS=1.296P AD=1.296P 
+ PS=7.92U PD=7.92U 
Mtr_02592 vdd n486 n487 vdd TP L=0.18U W=3.6U AS=1.296P AD=1.296P PS=7.92U 
+ PD=7.92U 
Mtr_02591 n486 in_d_7 vdd vdd TP L=0.18U W=1.08U AS=0.3888P AD=0.3888P 
+ PS=2.88U PD=2.88U 
Mtr_02590 vdd bsrmux_0_shr n486 vdd TP L=0.18U W=1.08U AS=0.3888P AD=0.3888P 
+ PS=2.88U PD=2.88U 
Mtr_02589 vdd n537 n632 vdd TP L=0.18U W=3.6U AS=1.296P AD=1.296P PS=7.92U 
+ PD=7.92U 
Mtr_02588 n632 n537 vdd vdd TP L=0.18U W=3.6U AS=1.296P AD=1.296P PS=7.92U 
+ PD=7.92U 
Mtr_02587 vdd n528 bsrmux_2_f1 vdd TP L=0.18U W=3.6U AS=1.296P AD=1.296P 
+ PS=7.92U PD=7.92U 
Mtr_02586 bsrmux_2_f1 n528 vdd vdd TP L=0.18U W=3.6U AS=1.296P AD=1.296P 
+ PS=7.92U PD=7.92U 
Mtr_02585 vdd n537 n632 vdd TP L=0.18U W=3.6U AS=1.296P AD=1.296P PS=7.92U 
+ PD=7.92U 
Mtr_02584 vdd n535 n537 vdd TP L=0.18U W=3.6U AS=1.296P AD=1.296P PS=7.92U 
+ PD=7.92U 
Mtr_02583 n535 in_d_4 vdd vdd TP L=0.18U W=1.08U AS=0.3888P AD=0.3888P 
+ PS=2.88U PD=2.88U 
Mtr_02582 vdd bsrmux_0_shr n535 vdd TP L=0.18U W=1.08U AS=0.3888P AD=0.3888P 
+ PS=2.88U PD=2.88U 
Mtr_02581 vdd n528 bsrmux_2_f1 vdd TP L=0.18U W=3.6U AS=1.296P AD=1.296P 
+ PS=7.92U PD=7.92U 
Mtr_02580 vdd n527 n528 vdd TP L=0.18U W=3.6U AS=1.296P AD=1.296P PS=7.92U 
+ PD=7.92U 
Mtr_02579 n527 in_d_5 vdd vdd TP L=0.18U W=1.08U AS=0.3888P AD=0.3888P 
+ PS=2.88U PD=2.88U 
Mtr_02578 vdd bsrmux_0_shr n527 vdd TP L=0.18U W=1.08U AS=0.3888P AD=0.3888P 
+ PS=2.88U PD=2.88U 
Mtr_02577 vdd n577 n627 vdd TP L=0.18U W=3.6U AS=1.296P AD=1.296P PS=7.92U 
+ PD=7.92U 
Mtr_02576 n627 n577 vdd vdd TP L=0.18U W=3.6U AS=1.296P AD=1.296P PS=7.92U 
+ PD=7.92U 
Mtr_02575 vdd n566 bsrmux_1_f1 vdd TP L=0.18U W=3.6U AS=1.296P AD=1.296P 
+ PS=7.92U PD=7.92U 
Mtr_02574 bsrmux_1_f1 n566 vdd vdd TP L=0.18U W=3.6U AS=1.296P AD=1.296P 
+ PS=7.92U PD=7.92U 
Mtr_02573 vdd n577 n627 vdd TP L=0.18U W=3.6U AS=1.296P AD=1.296P PS=7.92U 
+ PD=7.92U 
Mtr_02572 vdd n575 n577 vdd TP L=0.18U W=3.6U AS=1.296P AD=1.296P PS=7.92U 
+ PD=7.92U 
Mtr_02571 n575 in_d_2 vdd vdd TP L=0.18U W=1.08U AS=0.3888P AD=0.3888P 
+ PS=2.88U PD=2.88U 
Mtr_02570 vdd bsrmux_0_shr n575 vdd TP L=0.18U W=1.08U AS=0.3888P AD=0.3888P 
+ PS=2.88U PD=2.88U 
Mtr_02569 vdd n566 bsrmux_1_f1 vdd TP L=0.18U W=3.6U AS=1.296P AD=1.296P 
+ PS=7.92U PD=7.92U 
Mtr_02568 vdd n565 n566 vdd TP L=0.18U W=3.6U AS=1.296P AD=1.296P PS=7.92U 
+ PD=7.92U 
Mtr_02567 n565 in_d_3 vdd vdd TP L=0.18U W=1.08U AS=0.3888P AD=0.3888P 
+ PS=2.88U PD=2.88U 
Mtr_02566 vdd bsrmux_0_shr n565 vdd TP L=0.18U W=1.08U AS=0.3888P AD=0.3888P 
+ PS=2.88U PD=2.88U 
Mtr_02565 vdd n619 n622 vdd TP L=0.18U W=3.6U AS=1.296P AD=1.296P PS=7.92U 
+ PD=7.92U 
Mtr_02564 n622 n619 vdd vdd TP L=0.18U W=3.6U AS=1.296P AD=1.296P PS=7.92U 
+ PD=7.92U 
Mtr_02563 vdd n606 bsrmux_0_f1 vdd TP L=0.18U W=3.6U AS=1.296P AD=1.296P 
+ PS=7.92U PD=7.92U 
Mtr_02562 bsrmux_0_f1 n606 vdd vdd TP L=0.18U W=3.6U AS=1.296P AD=1.296P 
+ PS=7.92U PD=7.92U 
Mtr_02561 vdd n619 n622 vdd TP L=0.18U W=3.6U AS=1.296P AD=1.296P PS=7.92U 
+ PD=7.92U 
Mtr_02560 vdd n617 n619 vdd TP L=0.18U W=3.6U AS=1.296P AD=1.296P PS=7.92U 
+ PD=7.92U 
Mtr_02559 n617 in_d_0 vdd vdd TP L=0.18U W=1.08U AS=0.3888P AD=0.3888P 
+ PS=2.88U PD=2.88U 
Mtr_02558 vdd bsrmux_0_shr n617 vdd TP L=0.18U W=1.08U AS=0.3888P AD=0.3888P 
+ PS=2.88U PD=2.88U 
Mtr_02557 vdd n606 bsrmux_0_f1 vdd TP L=0.18U W=3.6U AS=1.296P AD=1.296P 
+ PS=7.92U PD=7.92U 
Mtr_02556 vdd n605 n606 vdd TP L=0.18U W=3.6U AS=1.296P AD=1.296P PS=7.92U 
+ PD=7.92U 
Mtr_02555 n605 in_d_1 vdd vdd TP L=0.18U W=1.08U AS=0.3888P AD=0.3888P 
+ PS=2.88U PD=2.88U 
Mtr_02554 vdd bsrmux_0_shr n605 vdd TP L=0.18U W=1.08U AS=0.3888P AD=0.3888P 
+ PS=2.88U PD=2.88U 
Mtr_02553 bsm_0_15_in_2 n41 vdd vdd TP L=0.18U W=3.6U AS=1.296P AD=1.296P 
+ PS=7.92U PD=7.92U 
Mtr_02552 vdd n41 bsm_0_15_in_2 vdd TP L=0.18U W=3.6U AS=1.296P AD=1.296P 
+ PS=7.92U PD=7.92U 
Mtr_02551 bsm_0_15_in_2 n41 vdd vdd TP L=0.18U W=3.6U AS=1.296P AD=1.296P 
+ PS=7.92U PD=7.92U 
Mtr_02550 vdd n43 n41 vdd TP L=0.18U W=2.16U AS=0.7776P AD=0.7776P PS=5.04U 
+ PD=5.04U 
Mtr_02549 n41 bshlmx_0_asr vdd vdd TP L=0.18U W=2.16U AS=0.7776P AD=0.7776P 
+ PS=5.04U PD=5.04U 
Mtr_02548 vdd bshlmx_0_lsl n43 vdd TP L=0.18U W=1.08U AS=0.3888P AD=0.3888P 
+ PS=2.88U PD=2.88U 
Mtr_02547 n43 in_d_30 vdd vdd TP L=0.18U W=1.08U AS=0.3888P AD=0.3888P 
+ PS=2.88U PD=2.88U 
Mtr_02546 bslmux_15_out_1 n30 vdd vdd TP L=0.18U W=3.6U AS=1.296P AD=1.296P 
+ PS=7.92U PD=7.92U 
Mtr_02545 vdd n30 bslmux_15_out_1 vdd TP L=0.18U W=3.6U AS=1.296P AD=1.296P 
+ PS=7.92U PD=7.92U 
Mtr_02544 bslmux_15_out_1 n30 vdd vdd TP L=0.18U W=3.6U AS=1.296P AD=1.296P 
+ PS=7.92U PD=7.92U 
Mtr_02543 vdd n31 n30 vdd TP L=0.18U W=2.16U AS=0.7776P AD=0.7776P PS=5.04U 
+ PD=5.04U 
Mtr_02542 n30 bshlmx_0_asr vdd vdd TP L=0.18U W=2.16U AS=0.7776P AD=0.7776P 
+ PS=5.04U PD=5.04U 
Mtr_02541 vdd bshlmx_0_lsl n31 vdd TP L=0.18U W=1.08U AS=0.3888P AD=0.3888P 
+ PS=2.88U PD=2.88U 
Mtr_02540 n31 in_d_31 vdd vdd TP L=0.18U W=1.08U AS=0.3888P AD=0.3888P 
+ PS=2.88U PD=2.88U 
Mtr_02539 bslmux_14_out_2 n80 vdd vdd TP L=0.18U W=3.6U AS=1.296P AD=1.296P 
+ PS=7.92U PD=7.92U 
Mtr_02538 vdd n80 bslmux_14_out_2 vdd TP L=0.18U W=3.6U AS=1.296P AD=1.296P 
+ PS=7.92U PD=7.92U 
Mtr_02537 bslmux_14_out_2 n80 vdd vdd TP L=0.18U W=3.6U AS=1.296P AD=1.296P 
+ PS=7.92U PD=7.92U 
Mtr_02536 vdd n84 n80 vdd TP L=0.18U W=2.16U AS=0.7776P AD=0.7776P PS=5.04U 
+ PD=5.04U 
Mtr_02535 n80 bshlmx_0_asr vdd vdd TP L=0.18U W=2.16U AS=0.7776P AD=0.7776P 
+ PS=5.04U PD=5.04U 
Mtr_02534 vdd bshlmx_0_lsl n84 vdd TP L=0.18U W=1.08U AS=0.3888P AD=0.3888P 
+ PS=2.88U PD=2.88U 
Mtr_02533 n84 in_d_28 vdd vdd TP L=0.18U W=1.08U AS=0.3888P AD=0.3888P 
+ PS=2.88U PD=2.88U 
Mtr_02532 bslmux_14_out_1 n69 vdd vdd TP L=0.18U W=3.6U AS=1.296P AD=1.296P 
+ PS=7.92U PD=7.92U 
Mtr_02531 vdd n69 bslmux_14_out_1 vdd TP L=0.18U W=3.6U AS=1.296P AD=1.296P 
+ PS=7.92U PD=7.92U 
Mtr_02530 bslmux_14_out_1 n69 vdd vdd TP L=0.18U W=3.6U AS=1.296P AD=1.296P 
+ PS=7.92U PD=7.92U 
Mtr_02529 vdd n68 n69 vdd TP L=0.18U W=2.16U AS=0.7776P AD=0.7776P PS=5.04U 
+ PD=5.04U 
Mtr_02528 n69 bshlmx_0_asr vdd vdd TP L=0.18U W=2.16U AS=0.7776P AD=0.7776P 
+ PS=5.04U PD=5.04U 
Mtr_02527 vdd bshlmx_0_lsl n68 vdd TP L=0.18U W=1.08U AS=0.3888P AD=0.3888P 
+ PS=2.88U PD=2.88U 
Mtr_02526 n68 in_d_29 vdd vdd TP L=0.18U W=1.08U AS=0.3888P AD=0.3888P 
+ PS=2.88U PD=2.88U 
Mtr_02525 bslmux_13_out_2 n116 vdd vdd TP L=0.18U W=3.6U AS=1.296P AD=1.296P 
+ PS=7.92U PD=7.92U 
Mtr_02524 vdd n116 bslmux_13_out_2 vdd TP L=0.18U W=3.6U AS=1.296P AD=1.296P 
+ PS=7.92U PD=7.92U 
Mtr_02523 bslmux_13_out_2 n116 vdd vdd TP L=0.18U W=3.6U AS=1.296P AD=1.296P 
+ PS=7.92U PD=7.92U 
Mtr_02522 vdd n118 n116 vdd TP L=0.18U W=2.16U AS=0.7776P AD=0.7776P PS=5.04U 
+ PD=5.04U 