
.subckt ex_m32x32 a_0 a_1 a_2 a_3 a_4 a_5 a_6 a_7 a_8 a_9 a_10 a_11 a_12 a_13 
+ a_14 a_15 a_16 a_17 a_18 a_19 a_20 a_21 a_22 a_23 a_24 a_25 a_26 a_27 a_28 
+ a_29 a_30 a_31 b_0 b_1 b_2 b_3 b_4 b_5 b_6 b_7 b_8 b_9 b_10 b_11 b_12 b_13 
+ b_14 b_15 b_16 b_17 b_18 b_19 b_20 b_21 b_22 b_23 b_24 b_25 b_26 b_27 b_28 
+ b_29 b_30 b_31 p_0 p_1 p_2 p_3 p_4 p_5 p_6 p_7 p_8 p_9 p_10 p_11 p_12 p_13 
+ p_14 p_15 p_16 p_17 p_18 p_19 p_20 p_21 p_22 p_23 p_24 p_25 p_26 p_27 p_28 
+ p_29 p_30 p_31 p_32 p_33 p_34 p_35 p_36 p_37 p_38 p_39 p_40 p_41 p_42 p_43 
+ p_44 p_45 p_46 p_47 p_48 p_49 p_50 p_51 p_52 p_53 p_54 p_55 p_56 p_57 p_58 
+ p_59 p_60 p_61 p_62 p_63 vdd vss 
Mtr_23875 n12163 c_18_1_sum n12084 vdd TP L=0.18U W=1.8U AS=0.648P AD=0.648P 
+ PS=4.32U PD=4.32U 
Mtr_23874 n12084 cla_cell0_0_a vdd vdd TP L=0.18U W=1.8U AS=0.648P AD=0.648P 
+ PS=4.32U PD=4.32U 
Mtr_23873 cla_cell0_0_g n12161 vdd vdd TP L=0.18U W=1.62U AS=0.5832P 
+ AD=0.5832P PS=3.96U PD=3.96U 
Mtr_23872 vdd c_18_1_sum n12161 vdd TP L=0.18U W=1.44U AS=0.5184P AD=0.5184P 
+ PS=3.6U PD=3.6U 
Mtr_23871 n12161 cla_cell0_0_a vdd vdd TP L=0.18U W=1.44U AS=0.5184P 
+ AD=0.5184P PS=3.6U PD=3.6U 
Mtr_23870 vdd n12161 cla_cell0_0_g vdd TP L=0.18U W=1.62U AS=0.5832P 
+ AD=0.5832P PS=3.96U PD=3.96U 
Mtr_23869 vdd n12163 p_30 vdd TP L=0.18U W=1.98U AS=0.7128P AD=0.7128P 
+ PS=4.68U PD=4.68U 
Mtr_23868 n11787 c_18_2_sum n11785 vdd TP L=0.18U W=1.8U AS=0.648P AD=0.648P 
+ PS=4.32U PD=4.32U 
Mtr_23867 n11785 c_18_1_cout vdd vdd TP L=0.18U W=1.8U AS=0.648P AD=0.648P 
+ PS=4.32U PD=4.32U 
Mtr_23866 cla_cell0_1_g n11783 vdd vdd TP L=0.18U W=1.62U AS=0.5832P 
+ AD=0.5832P PS=3.96U PD=3.96U 
Mtr_23865 vdd c_18_2_sum n11783 vdd TP L=0.18U W=1.44U AS=0.5184P AD=0.5184P 
+ PS=3.6U PD=3.6U 
Mtr_23864 n11783 c_18_1_cout vdd vdd TP L=0.18U W=1.44U AS=0.5184P AD=0.5184P 
+ PS=3.6U PD=3.6U 
Mtr_23863 vdd n11783 cla_cell0_1_g vdd TP L=0.18U W=1.62U AS=0.5832P 
+ AD=0.5832P PS=3.96U PD=3.96U 
Mtr_23862 vdd n11787 cla_cell0_1_p vdd TP L=0.18U W=1.98U AS=0.7128P 
+ AD=0.7128P PS=4.68U PD=4.68U 
Mtr_23861 vdd n11479 cla_cell0_2_g vdd TP L=0.18U W=1.62U AS=0.5832P 
+ AD=0.5832P PS=3.96U PD=3.96U 
Mtr_23860 n11479 c_18_3_sum vdd vdd TP L=0.18U W=1.44U AS=0.5184P AD=0.5184P 
+ PS=3.6U PD=3.6U 
Mtr_23859 vdd c_18_2_cout n11479 vdd TP L=0.18U W=1.44U AS=0.5184P AD=0.5184P 
+ PS=3.6U PD=3.6U 
Mtr_23858 cla_cell0_2_g n11479 vdd vdd TP L=0.18U W=1.62U AS=0.5832P 
+ AD=0.5832P PS=3.96U PD=3.96U 
Mtr_23857 vdd n11481 cla_cell0_2_p vdd TP L=0.18U W=2.16U AS=0.7776P 
+ AD=0.7776P PS=5.04U PD=5.04U 
Mtr_23856 cla_cell0_2_pn cla_cell0_2_p vdd vdd TP L=0.18U W=2.16U AS=0.7776P 
+ AD=0.7776P PS=5.04U PD=5.04U 
Mtr_23855 n11272 c_18_3_sum vdd vdd TP L=0.18U W=1.8U AS=0.648P AD=0.648P 
+ PS=4.32U PD=4.32U 
Mtr_23854 n11481 c_18_2_cout n11272 vdd TP L=0.18U W=1.8U AS=0.648P AD=0.648P 
+ PS=4.32U PD=4.32U 
Mtr_23853 n11059 c_18_4_sum n11273 vdd TP L=0.18U W=1.8U AS=0.648P AD=0.648P 
+ PS=4.32U PD=4.32U 
Mtr_23852 n11273 c_18_3_cout vdd vdd TP L=0.18U W=1.8U AS=0.648P AD=0.648P 
+ PS=4.32U PD=4.32U 
Mtr_23851 cla_cell0_3_g n11270 vdd vdd TP L=0.18U W=1.62U AS=0.5832P 
+ AD=0.5832P PS=3.96U PD=3.96U 
Mtr_23850 vdd c_18_4_sum n11270 vdd TP L=0.18U W=1.44U AS=0.5184P AD=0.5184P 
+ PS=3.6U PD=3.6U 
Mtr_23849 n11270 c_18_3_cout vdd vdd TP L=0.18U W=1.44U AS=0.5184P AD=0.5184P 
+ PS=3.6U PD=3.6U 
Mtr_23848 vdd n11270 cla_cell0_3_g vdd TP L=0.18U W=1.62U AS=0.5832P 
+ AD=0.5832P PS=3.96U PD=3.96U 
Mtr_23847 vdd n11059 cla_cell1_3_p1 vdd TP L=0.18U W=1.98U AS=0.7128P 
+ AD=0.7128P PS=4.68U PD=4.68U 
Mtr_23846 n10899 c_18_4_cout n10467 vdd TP L=0.18U W=1.8U AS=0.648P AD=0.648P 
+ PS=4.32U PD=4.32U 
Mtr_23845 n10467 c_18_5_sum vdd vdd TP L=0.18U W=1.8U AS=0.648P AD=0.648P 
+ PS=4.32U PD=4.32U 
Mtr_23844 cla_cell0_4_g n10893 vdd vdd TP L=0.18U W=1.62U AS=0.5832P 
+ AD=0.5832P PS=3.96U PD=3.96U 
Mtr_23843 vdd c_18_4_cout n10893 vdd TP L=0.18U W=1.44U AS=0.5184P AD=0.5184P 
+ PS=3.6U PD=3.6U 
Mtr_23842 n10893 c_18_5_sum vdd vdd TP L=0.18U W=1.44U AS=0.5184P AD=0.5184P 
+ PS=3.6U PD=3.6U 
Mtr_23841 vdd n10893 cla_cell0_4_g vdd TP L=0.18U W=1.62U AS=0.5832P 
+ AD=0.5832P PS=3.96U PD=3.96U 
Mtr_23840 vdd n10899 cla_cell3_4_p1 vdd TP L=0.18U W=1.98U AS=0.7128P 
+ AD=0.7128P PS=4.68U PD=4.68U 
Mtr_23839 vdd n10461 cla_cell0_5_g vdd TP L=0.18U W=1.62U AS=0.5832P 
+ AD=0.5832P PS=3.96U PD=3.96U 
Mtr_23838 n10461 c_18_5_cout vdd vdd TP L=0.18U W=1.44U AS=0.5184P AD=0.5184P 
+ PS=3.6U PD=3.6U 
Mtr_23837 vdd c_18_6_sum n10461 vdd TP L=0.18U W=1.44U AS=0.5184P AD=0.5184P 
+ PS=3.6U PD=3.6U 
Mtr_23836 cla_cell0_5_g n10461 vdd vdd TP L=0.18U W=1.62U AS=0.5832P 
+ AD=0.5832P PS=3.96U PD=3.96U 
Mtr_23835 vdd n10465 cla_cell1_5_p1 vdd TP L=0.18U W=2.16U AS=0.7776P 
+ AD=0.7776P PS=5.04U PD=5.04U 
Mtr_23834 cla_cell7_5_p cla_cell1_5_p1 vdd vdd TP L=0.18U W=2.16U AS=0.7776P 
+ AD=0.7776P PS=5.04U PD=5.04U 
Mtr_23833 n10466 c_18_5_cout vdd vdd TP L=0.18U W=1.8U AS=0.648P AD=0.648P 
+ PS=4.32U PD=4.32U 
Mtr_23832 n10465 c_18_6_sum n10466 vdd TP L=0.18U W=1.8U AS=0.648P AD=0.648P 
+ PS=4.32U PD=4.32U 
Mtr_23831 vdd n10073 cla_cell1_6_tsg vdd TP L=0.18U W=1.62U AS=0.5832P 
+ AD=0.5832P PS=3.96U PD=3.96U 
Mtr_23830 n10073 c_18_7_sum vdd vdd TP L=0.18U W=1.44U AS=0.5184P AD=0.5184P 
+ PS=3.6U PD=3.6U 
Mtr_23829 vdd c_18_6_cout n10073 vdd TP L=0.18U W=1.44U AS=0.5184P AD=0.5184P 
+ PS=3.6U PD=3.6U 
Mtr_23828 cla_cell1_6_tsg n10073 vdd vdd TP L=0.18U W=1.62U AS=0.5832P 
+ AD=0.5832P PS=3.96U PD=3.96U 
Mtr_23827 vdd n10079 cla_cell0_6_p vdd TP L=0.18U W=2.16U AS=0.7776P 
+ AD=0.7776P PS=5.04U PD=5.04U 
Mtr_23826 cla_cell7_6_p cla_cell0_6_p vdd vdd TP L=0.18U W=2.16U AS=0.7776P 
+ AD=0.7776P PS=5.04U PD=5.04U 
Mtr_23825 n9636 c_18_7_sum vdd vdd TP L=0.18U W=1.8U AS=0.648P AD=0.648P 
+ PS=4.32U PD=4.32U 
Mtr_23824 n10079 c_18_6_cout n9636 vdd TP L=0.18U W=1.8U AS=0.648P AD=0.648P 
+ PS=4.32U PD=4.32U 
Mtr_23823 vdd n9630 cla_cell0_7_g vdd TP L=0.18U W=1.62U AS=0.5832P AD=0.5832P 
+ PS=3.96U PD=3.96U 
Mtr_23822 n9630 c_18_7_cout vdd vdd TP L=0.18U W=1.44U AS=0.5184P AD=0.5184P 
+ PS=3.6U PD=3.6U 
Mtr_23821 vdd c_18_8_sum n9630 vdd TP L=0.18U W=1.44U AS=0.5184P AD=0.5184P 
+ PS=3.6U PD=3.6U 
Mtr_23820 cla_cell0_7_g n9630 vdd vdd TP L=0.18U W=1.62U AS=0.5832P AD=0.5832P 
+ PS=3.96U PD=3.96U 
Mtr_23819 vdd n9634 cla_cell0_7_p vdd TP L=0.18U W=2.16U AS=0.7776P AD=0.7776P 
+ PS=5.04U PD=5.04U 
Mtr_23818 cla_cell0_7_pn cla_cell0_7_p vdd vdd TP L=0.18U W=2.16U AS=0.7776P 
+ AD=0.7776P PS=5.04U PD=5.04U 
Mtr_23817 n9635 c_18_7_cout vdd vdd TP L=0.18U W=1.8U AS=0.648P AD=0.648P 
+ PS=4.32U PD=4.32U 
Mtr_23816 n9634 c_18_8_sum n9635 vdd TP L=0.18U W=1.8U AS=0.648P AD=0.648P 
+ PS=4.32U PD=4.32U 
Mtr_23815 vdd n9289 cla_cell0_8_g vdd TP L=0.18U W=1.62U AS=0.5832P AD=0.5832P 
+ PS=3.96U PD=3.96U 
Mtr_23814 n9289 c_18_9_sum vdd vdd TP L=0.18U W=1.44U AS=0.5184P AD=0.5184P 
+ PS=3.6U PD=3.6U 
Mtr_23813 vdd c_18_8_cout n9289 vdd TP L=0.18U W=1.44U AS=0.5184P AD=0.5184P 
+ PS=3.6U PD=3.6U 
Mtr_23812 cla_cell0_8_g n9289 vdd vdd TP L=0.18U W=1.62U AS=0.5832P AD=0.5832P 
+ PS=3.96U PD=3.96U 
Mtr_23811 vdd n9292 cla_cell0_8_p vdd TP L=0.18U W=2.16U AS=0.7776P AD=0.7776P 
+ PS=5.04U PD=5.04U 
Mtr_23810 cla_cell7_8_p cla_cell0_8_p vdd vdd TP L=0.18U W=2.16U AS=0.7776P 
+ AD=0.7776P PS=5.04U PD=5.04U 
Mtr_23809 n8868 c_18_9_sum vdd vdd TP L=0.18U W=1.8U AS=0.648P AD=0.648P 
+ PS=4.32U PD=4.32U 
Mtr_23808 n9292 c_18_8_cout n8868 vdd TP L=0.18U W=1.8U AS=0.648P AD=0.648P 
+ PS=4.32U PD=4.32U 
Mtr_23807 n8869 c_18_10_sum n8867 vdd TP L=0.18U W=1.8U AS=0.648P AD=0.648P 
+ PS=4.32U PD=4.32U 
Mtr_23806 n8867 c_18_9_cout vdd vdd TP L=0.18U W=1.8U AS=0.648P AD=0.648P 
+ PS=4.32U PD=4.32U 
Mtr_23805 cla_cell0_9_g n8862 vdd vdd TP L=0.18U W=1.62U AS=0.5832P AD=0.5832P 
+ PS=3.96U PD=3.96U 
Mtr_23804 vdd c_18_10_sum n8862 vdd TP L=0.18U W=1.44U AS=0.5184P AD=0.5184P 
+ PS=3.6U PD=3.6U 
Mtr_23803 n8862 c_18_9_cout vdd vdd TP L=0.18U W=1.44U AS=0.5184P AD=0.5184P 
+ PS=3.6U PD=3.6U 
Mtr_23802 vdd n8862 cla_cell0_9_g vdd TP L=0.18U W=1.62U AS=0.5832P AD=0.5832P 
+ PS=3.96U PD=3.96U 
Mtr_23801 vdd n8869 cla_cell0_9_p vdd TP L=0.18U W=1.98U AS=0.7128P AD=0.7128P 
+ PS=4.68U PD=4.68U 
Mtr_23800 n8561 c_18_10_cout n8419 vdd TP L=0.18U W=1.8U AS=0.648P AD=0.648P 
+ PS=4.32U PD=4.32U 
Mtr_23799 n8419 c_18_11_sum vdd vdd TP L=0.18U W=1.8U AS=0.648P AD=0.648P 
+ PS=4.32U PD=4.32U 
Mtr_23798 cla_cell0_10_g n8557 vdd vdd TP L=0.18U W=1.62U AS=0.5832P 
+ AD=0.5832P PS=3.96U PD=3.96U 
Mtr_23797 vdd c_18_10_cout n8557 vdd TP L=0.18U W=1.44U AS=0.5184P AD=0.5184P 
+ PS=3.6U PD=3.6U 
Mtr_23796 n8557 c_18_11_sum vdd vdd TP L=0.18U W=1.44U AS=0.5184P AD=0.5184P 
+ PS=3.6U PD=3.6U 
Mtr_23795 vdd n8557 cla_cell0_10_g vdd TP L=0.18U W=1.62U AS=0.5832P 
+ AD=0.5832P PS=3.96U PD=3.96U 
Mtr_23794 vdd n8561 cla_cell0_10_p vdd TP L=0.18U W=1.98U AS=0.7128P 
+ AD=0.7128P PS=4.68U PD=4.68U 
Mtr_23793 n8132 c_18_12_sum n8130 vdd TP L=0.18U W=1.8U AS=0.648P AD=0.648P 
+ PS=4.32U PD=4.32U 
Mtr_23792 n8130 c_18_11_cout vdd vdd TP L=0.18U W=1.8U AS=0.648P AD=0.648P 
+ PS=4.32U PD=4.32U 
Mtr_23791 cla_cell0_11_g n8126 vdd vdd TP L=0.18U W=1.62U AS=0.5832P 
+ AD=0.5832P PS=3.96U PD=3.96U 
Mtr_23790 vdd c_18_12_sum n8126 vdd TP L=0.18U W=1.44U AS=0.5184P AD=0.5184P 
+ PS=3.6U PD=3.6U 
Mtr_23789 n8126 c_18_11_cout vdd vdd TP L=0.18U W=1.44U AS=0.5184P AD=0.5184P 
+ PS=3.6U PD=3.6U 
Mtr_23788 vdd n8126 cla_cell0_11_g vdd TP L=0.18U W=1.62U AS=0.5832P 
+ AD=0.5832P PS=3.96U PD=3.96U 
Mtr_23787 vdd n8132 cla_cell0_11_p vdd TP L=0.18U W=1.98U AS=0.7128P 
+ AD=0.7128P PS=4.68U PD=4.68U 
Mtr_23786 n7820 c_18_12_cout n7608 vdd TP L=0.18U W=1.8U AS=0.648P AD=0.648P 
+ PS=4.32U PD=4.32U 
Mtr_23785 n7608 c_18_13_sum vdd vdd TP L=0.18U W=1.8U AS=0.648P AD=0.648P 
+ PS=4.32U PD=4.32U 
Mtr_23784 cla_cell0_12_g n7815 vdd vdd TP L=0.18U W=1.62U AS=0.5832P 
+ AD=0.5832P PS=3.96U PD=3.96U 
Mtr_23783 vdd c_18_12_cout n7815 vdd TP L=0.18U W=1.44U AS=0.5184P AD=0.5184P 
+ PS=3.6U PD=3.6U 
Mtr_23782 n7815 c_18_13_sum vdd vdd TP L=0.18U W=1.44U AS=0.5184P AD=0.5184P 
+ PS=3.6U PD=3.6U 
Mtr_23781 vdd n7815 cla_cell0_12_g vdd TP L=0.18U W=1.62U AS=0.5832P 
+ AD=0.5832P PS=3.96U PD=3.96U 
Mtr_23780 vdd n7820 cla_cell0_12_p vdd TP L=0.18U W=1.98U AS=0.7128P 
+ AD=0.7128P PS=4.68U PD=4.68U 
Mtr_23779 n7393 c_18_14_sum n7607 vdd TP L=0.18U W=1.8U AS=0.648P AD=0.648P 
+ PS=4.32U PD=4.32U 
Mtr_23778 n7607 c_18_13_cout vdd vdd TP L=0.18U W=1.8U AS=0.648P AD=0.648P 
+ PS=4.32U PD=4.32U 
Mtr_23777 cla_cell0_13_g n7604 vdd vdd TP L=0.18U W=1.62U AS=0.5832P 
+ AD=0.5832P PS=3.96U PD=3.96U 
Mtr_23776 vdd c_18_14_sum n7604 vdd TP L=0.18U W=1.44U AS=0.5184P AD=0.5184P 
+ PS=3.6U PD=3.6U 
Mtr_23775 n7604 c_18_13_cout vdd vdd TP L=0.18U W=1.44U AS=0.5184P AD=0.5184P 
+ PS=3.6U PD=3.6U 
Mtr_23774 vdd n7604 cla_cell0_13_g vdd TP L=0.18U W=1.62U AS=0.5832P 
+ AD=0.5832P PS=3.96U PD=3.96U 
Mtr_23773 vdd n7393 cla_cell0_13_p vdd TP L=0.18U W=1.98U AS=0.7128P 
+ AD=0.7128P PS=4.68U PD=4.68U 
Mtr_23772 n7230 c_18_14_cout n6801 vdd TP L=0.18U W=1.8U AS=0.648P AD=0.648P 
+ PS=4.32U PD=4.32U 
Mtr_23771 n6801 c_18_15_sum vdd vdd TP L=0.18U W=1.8U AS=0.648P AD=0.648P 
+ PS=4.32U PD=4.32U 
Mtr_23770 cla_cell0_14_g n7059 vdd vdd TP L=0.18U W=1.62U AS=0.5832P 
+ AD=0.5832P PS=3.96U PD=3.96U 
Mtr_23769 vdd c_18_14_cout n7059 vdd TP L=0.18U W=1.44U AS=0.5184P AD=0.5184P 
+ PS=3.6U PD=3.6U 
Mtr_23768 n7059 c_18_15_sum vdd vdd TP L=0.18U W=1.44U AS=0.5184P AD=0.5184P 
+ PS=3.6U PD=3.6U 
Mtr_23767 vdd n7059 cla_cell0_14_g vdd TP L=0.18U W=1.62U AS=0.5832P 
+ AD=0.5832P PS=3.96U PD=3.96U 
Mtr_23766 vdd n7230 cla_cell0_14_p vdd TP L=0.18U W=1.98U AS=0.7128P 
+ AD=0.7128P PS=4.68U PD=4.68U 
Mtr_23765 n6799 c_18_16_sum n6800 vdd TP L=0.18U W=1.8U AS=0.648P AD=0.648P 
+ PS=4.32U PD=4.32U 
Mtr_23764 n6800 c_18_15_cout vdd vdd TP L=0.18U W=1.8U AS=0.648P AD=0.648P 
+ PS=4.32U PD=4.32U 
Mtr_23763 cla_cell0_15_g n6795 vdd vdd TP L=0.18U W=1.62U AS=0.5832P 
+ AD=0.5832P PS=3.96U PD=3.96U 
Mtr_23762 vdd c_18_16_sum n6795 vdd TP L=0.18U W=1.44U AS=0.5184P AD=0.5184P 
+ PS=3.6U PD=3.6U 
Mtr_23761 n6795 c_18_15_cout vdd vdd TP L=0.18U W=1.44U AS=0.5184P AD=0.5184P 
+ PS=3.6U PD=3.6U 
Mtr_23760 vdd n6795 cla_cell0_15_g vdd TP L=0.18U W=1.62U AS=0.5832P 
+ AD=0.5832P PS=3.96U PD=3.96U 
Mtr_23759 vdd n6799 cla_cell1_15_p1 vdd TP L=0.18U W=1.98U AS=0.7128P 
+ AD=0.7128P PS=4.68U PD=4.68U 
Mtr_23758 n6419 c_18_16_cout n5954 vdd TP L=0.18U W=1.8U AS=0.648P AD=0.648P 
+ PS=4.32U PD=4.32U 
Mtr_23757 n5954 c_18_17_sum vdd vdd TP L=0.18U W=1.8U AS=0.648P AD=0.648P 
+ PS=4.32U PD=4.32U 
Mtr_23756 cla_cell1_16_sg n6415 vdd vdd TP L=0.18U W=1.62U AS=0.5832P 
+ AD=0.5832P PS=3.96U PD=3.96U 
Mtr_23755 vdd c_18_16_cout n6415 vdd TP L=0.18U W=1.44U AS=0.5184P AD=0.5184P 
+ PS=3.6U PD=3.6U 
Mtr_23754 n6415 c_18_17_sum vdd vdd TP L=0.18U W=1.44U AS=0.5184P AD=0.5184P 
+ PS=3.6U PD=3.6U 
Mtr_23753 vdd n6415 cla_cell1_16_sg vdd TP L=0.18U W=1.62U AS=0.5832P 
+ AD=0.5832P PS=3.96U PD=3.96U 
Mtr_23752 vdd n6419 cla_cell5_16_p1 vdd TP L=0.18U W=1.98U AS=0.7128P 
+ AD=0.7128P PS=4.68U PD=4.68U 
Mtr_23751 vdd n5946 cla_cell0_17_g vdd TP L=0.18U W=1.62U AS=0.5832P 
+ AD=0.5832P PS=3.96U PD=3.96U 
Mtr_23750 n5946 c_18_17_cout vdd vdd TP L=0.18U W=1.44U AS=0.5184P AD=0.5184P 
+ PS=3.6U PD=3.6U 
Mtr_23749 vdd c_18_18_sum n5946 vdd TP L=0.18U W=1.44U AS=0.5184P AD=0.5184P 
+ PS=3.6U PD=3.6U 
Mtr_23748 cla_cell0_17_g n5946 vdd vdd TP L=0.18U W=1.62U AS=0.5832P 
+ AD=0.5832P PS=3.96U PD=3.96U 
Mtr_23747 vdd n5950 cla_cell0_17_p vdd TP L=0.18U W=2.16U AS=0.7776P 
+ AD=0.7776P PS=5.04U PD=5.04U 
Mtr_23746 cla_cell0_17_pn cla_cell0_17_p vdd vdd TP L=0.18U W=2.16U AS=0.7776P 
+ AD=0.7776P PS=5.04U PD=5.04U 
Mtr_23745 n5951 c_18_17_cout vdd vdd TP L=0.18U W=1.8U AS=0.648P AD=0.648P 
+ PS=4.32U PD=4.32U 
Mtr_23744 n5950 c_18_18_sum n5951 vdd TP L=0.18U W=1.8U AS=0.648P AD=0.648P 
+ PS=4.32U PD=4.32U 
Mtr_23743 vdd n5620 cla_cell1_18_tsg vdd TP L=0.18U W=1.62U AS=0.5832P 
+ AD=0.5832P PS=3.96U PD=3.96U 
Mtr_23742 n5620 c_18_19_sum vdd vdd TP L=0.18U W=1.44U AS=0.5184P AD=0.5184P 
+ PS=3.6U PD=3.6U 
Mtr_23741 vdd c_18_18_cout n5620 vdd TP L=0.18U W=1.44U AS=0.5184P AD=0.5184P 
+ PS=3.6U PD=3.6U 
Mtr_23740 cla_cell1_18_tsg n5620 vdd vdd TP L=0.18U W=1.62U AS=0.5832P 
+ AD=0.5832P PS=3.96U PD=3.96U 
Mtr_23739 vdd n5625 cla_cell0_18_p vdd TP L=0.18U W=2.16U AS=0.7776P 
+ AD=0.7776P PS=5.04U PD=5.04U 
Mtr_23738 cla_cell7_18_p cla_cell0_18_p vdd vdd TP L=0.18U W=2.16U AS=0.7776P 
+ AD=0.7776P PS=5.04U PD=5.04U 
Mtr_23737 n5182 c_18_19_sum vdd vdd TP L=0.18U W=1.8U AS=0.648P AD=0.648P 
+ PS=4.32U PD=4.32U 
Mtr_23736 n5625 c_18_18_cout n5182 vdd TP L=0.18U W=1.8U AS=0.648P AD=0.648P 
+ PS=4.32U PD=4.32U 
Mtr_23735 vdd n5173 cla_cell0_19_g vdd TP L=0.18U W=1.62U AS=0.5832P 
+ AD=0.5832P PS=3.96U PD=3.96U 
Mtr_23734 n5173 c_18_19_cout vdd vdd TP L=0.18U W=1.44U AS=0.5184P AD=0.5184P 
+ PS=3.6U PD=3.6U 
Mtr_23733 vdd c_18_20_sum n5173 vdd TP L=0.18U W=1.44U AS=0.5184P AD=0.5184P 
+ PS=3.6U PD=3.6U 
Mtr_23732 cla_cell0_19_g n5173 vdd vdd TP L=0.18U W=1.62U AS=0.5832P 
+ AD=0.5832P PS=3.96U PD=3.96U 
Mtr_23731 vdd n5180 cla_cell0_19_p vdd TP L=0.18U W=2.16U AS=0.7776P 
+ AD=0.7776P PS=5.04U PD=5.04U 
Mtr_23730 cla_cell0_19_pn cla_cell0_19_p vdd vdd TP L=0.18U W=2.16U AS=0.7776P 
+ AD=0.7776P PS=5.04U PD=5.04U 
Mtr_23729 n5178 c_18_19_cout vdd vdd TP L=0.18U W=1.8U AS=0.648P AD=0.648P 
+ PS=4.32U PD=4.32U 
Mtr_23728 n5180 c_18_20_sum n5178 vdd TP L=0.18U W=1.8U AS=0.648P AD=0.648P 
+ PS=4.32U PD=4.32U 
Mtr_23727 vdd n4866 cla_cell0_20_g vdd TP L=0.18U W=1.62U AS=0.5832P 
+ AD=0.5832P PS=3.96U PD=3.96U 
Mtr_23726 n4866 c_18_21_sum vdd vdd TP L=0.18U W=1.44U AS=0.5184P AD=0.5184P 
+ PS=3.6U PD=3.6U 
Mtr_23725 vdd c_18_20_cout n4866 vdd TP L=0.18U W=1.44U AS=0.5184P AD=0.5184P 
+ PS=3.6U PD=3.6U 
Mtr_23724 cla_cell0_20_g n4866 vdd vdd TP L=0.18U W=1.62U AS=0.5832P 
+ AD=0.5832P PS=3.96U PD=3.96U 
Mtr_23723 vdd n4871 cla_cell0_20_p vdd TP L=0.18U W=2.16U AS=0.7776P 
+ AD=0.7776P PS=5.04U PD=5.04U 
Mtr_23722 cla_cell0_20_pn cla_cell0_20_p vdd vdd TP L=0.18U W=2.16U AS=0.7776P 
+ AD=0.7776P PS=5.04U PD=5.04U 
Mtr_23721 n4730 c_18_21_sum vdd vdd TP L=0.18U W=1.8U AS=0.648P AD=0.648P 
+ PS=4.32U PD=4.32U 
Mtr_23720 n4871 c_18_20_cout n4730 vdd TP L=0.18U W=1.8U AS=0.648P AD=0.648P 
+ PS=4.32U PD=4.32U 
Mtr_23719 vdd n4437 cla_cell0_21_g vdd TP L=0.18U W=1.62U AS=0.5832P 
+ AD=0.5832P PS=3.96U PD=3.96U 
Mtr_23718 n4437 c_18_21_cout vdd vdd TP L=0.18U W=1.44U AS=0.5184P AD=0.5184P 
+ PS=3.6U PD=3.6U 
Mtr_23717 vdd c_18_22_sum n4437 vdd TP L=0.18U W=1.44U AS=0.5184P AD=0.5184P 
+ PS=3.6U PD=3.6U 
Mtr_23716 cla_cell0_21_g n4437 vdd vdd TP L=0.18U W=1.62U AS=0.5832P 
+ AD=0.5832P PS=3.96U PD=3.96U 
Mtr_23715 vdd n4441 cla_cell0_21_p vdd TP L=0.18U W=2.16U AS=0.7776P 
+ AD=0.7776P PS=5.04U PD=5.04U 
Mtr_23714 cla_cell0_21_pn cla_cell0_21_p vdd vdd TP L=0.18U W=2.16U AS=0.7776P 
+ AD=0.7776P PS=5.04U PD=5.04U 
Mtr_23713 n4442 c_18_21_cout vdd vdd TP L=0.18U W=1.8U AS=0.648P AD=0.648P 
+ PS=4.32U PD=4.32U 
Mtr_23712 n4441 c_18_22_sum n4442 vdd TP L=0.18U W=1.8U AS=0.648P AD=0.648P 
+ PS=4.32U PD=4.32U 
Mtr_23711 vdd n4122 cla_cell0_22_g vdd TP L=0.18U W=1.62U AS=0.5832P 
+ AD=0.5832P PS=3.96U PD=3.96U 
Mtr_23710 n4122 c_18_23_sum vdd vdd TP L=0.18U W=1.44U AS=0.5184P AD=0.5184P 
+ PS=3.6U PD=3.6U 
Mtr_23709 vdd c_18_22_cout n4122 vdd TP L=0.18U W=1.44U AS=0.5184P AD=0.5184P 
+ PS=3.6U PD=3.6U 
Mtr_23708 cla_cell0_22_g n4122 vdd vdd TP L=0.18U W=1.62U AS=0.5832P 
+ AD=0.5832P PS=3.96U PD=3.96U 
Mtr_23707 vdd n4126 cla_cell0_22_p vdd TP L=0.18U W=2.16U AS=0.7776P 
+ AD=0.7776P PS=5.04U PD=5.04U 
Mtr_23706 cla_cell0_22_pn cla_cell0_22_p vdd vdd TP L=0.18U W=2.16U AS=0.7776P 
+ AD=0.7776P PS=5.04U PD=5.04U 
Mtr_23705 n3948 c_18_23_sum vdd vdd TP L=0.18U W=1.8U AS=0.648P AD=0.648P 
+ PS=4.32U PD=4.32U 
Mtr_23704 n4126 c_18_22_cout n3948 vdd TP L=0.18U W=1.8U AS=0.648P AD=0.648P 
+ PS=4.32U PD=4.32U 
Mtr_23703 vdd n3683 cla_cell0_23_g vdd TP L=0.18U W=1.62U AS=0.5832P 
+ AD=0.5832P PS=3.96U PD=3.96U 
Mtr_23702 n3683 c_18_23_cout vdd vdd TP L=0.18U W=1.44U AS=0.5184P AD=0.5184P 
+ PS=3.6U PD=3.6U 
Mtr_23701 vdd c_18_24_sum n3683 vdd TP L=0.18U W=1.44U AS=0.5184P AD=0.5184P 
+ PS=3.6U PD=3.6U 
Mtr_23700 cla_cell0_23_g n3683 vdd vdd TP L=0.18U W=1.62U AS=0.5832P 
+ AD=0.5832P PS=3.96U PD=3.96U 
Mtr_23699 vdd n3689 cla_cell0_23_p vdd TP L=0.18U W=2.16U AS=0.7776P 
+ AD=0.7776P PS=5.04U PD=5.04U 
Mtr_23698 cla_cell0_23_pn cla_cell0_23_p vdd vdd TP L=0.18U W=2.16U AS=0.7776P 
+ AD=0.7776P PS=5.04U PD=5.04U 
Mtr_23697 n3687 c_18_23_cout vdd vdd TP L=0.18U W=1.8U AS=0.648P AD=0.648P 
+ PS=4.32U PD=4.32U 
Mtr_23696 n3689 c_18_24_sum n3687 vdd TP L=0.18U W=1.8U AS=0.648P AD=0.648P 
+ PS=4.32U PD=4.32U 
Mtr_23695 vdd n3349 cla_cell0_24_g vdd TP L=0.18U W=1.62U AS=0.5832P 
+ AD=0.5832P PS=3.96U PD=3.96U 
Mtr_23694 n3349 c_18_25_sum vdd vdd TP L=0.18U W=1.44U AS=0.5184P AD=0.5184P 
+ PS=3.6U PD=3.6U 
Mtr_23693 vdd c_18_24_cout n3349 vdd TP L=0.18U W=1.44U AS=0.5184P AD=0.5184P 
+ PS=3.6U PD=3.6U 
Mtr_23692 cla_cell0_24_g n3349 vdd vdd TP L=0.18U W=1.62U AS=0.5832P 
+ AD=0.5832P PS=3.96U PD=3.96U 
Mtr_23691 vdd n3351 cla_cell0_24_p vdd TP L=0.18U W=2.16U AS=0.7776P 
+ AD=0.7776P PS=5.04U PD=5.04U 
Mtr_23690 cla_cell0_24_pn cla_cell0_24_p vdd vdd TP L=0.18U W=2.16U AS=0.7776P 
+ AD=0.7776P PS=5.04U PD=5.04U 
Mtr_23689 n3098 c_18_25_sum vdd vdd TP L=0.18U W=1.8U AS=0.648P AD=0.648P 
+ PS=4.32U PD=4.32U 
Mtr_23688 n3351 c_18_24_cout n3098 vdd TP L=0.18U W=1.8U AS=0.648P AD=0.648P 
+ PS=4.32U PD=4.32U 
Mtr_23687 vdd n3093 cla_cell0_25_g vdd TP L=0.18U W=1.62U AS=0.5832P 
+ AD=0.5832P PS=3.96U PD=3.96U 
Mtr_23686 n3093 c_18_25_cout vdd vdd TP L=0.18U W=1.44U AS=0.5184P AD=0.5184P 
+ PS=3.6U PD=3.6U 
Mtr_23685 vdd c_18_26_sum n3093 vdd TP L=0.18U W=1.44U AS=0.5184P AD=0.5184P 
+ PS=3.6U PD=3.6U 
Mtr_23684 cla_cell0_25_g n3093 vdd vdd TP L=0.18U W=1.62U AS=0.5832P 
+ AD=0.5832P PS=3.96U PD=3.96U 
Mtr_23683 vdd n3097 cla_cell1_25_p1 vdd TP L=0.18U W=2.16U AS=0.7776P 
+ AD=0.7776P PS=5.04U PD=5.04U 
Mtr_23682 cla_cell0_25_pn cla_cell1_25_p1 vdd vdd TP L=0.18U W=2.16U 
+ AS=0.7776P AD=0.7776P PS=5.04U PD=5.04U 
Mtr_23681 n3099 c_18_25_cout vdd vdd TP L=0.18U W=1.8U AS=0.648P AD=0.648P 
+ PS=4.32U PD=4.32U 
Mtr_23680 n3097 c_18_26_sum n3099 vdd TP L=0.18U W=1.8U AS=0.648P AD=0.648P 
+ PS=4.32U PD=4.32U 
Mtr_23679 vdd n2727 cla_cell1_26_tsg vdd TP L=0.18U W=1.62U AS=0.5832P 
+ AD=0.5832P PS=3.96U PD=3.96U 
Mtr_23678 n2727 c_18_27_sum vdd vdd TP L=0.18U W=1.44U AS=0.5184P AD=0.5184P 
+ PS=3.6U PD=3.6U 
Mtr_23677 vdd c_18_26_cout n2727 vdd TP L=0.18U W=1.44U AS=0.5184P AD=0.5184P 
+ PS=3.6U PD=3.6U 
Mtr_23676 cla_cell1_26_tsg n2727 vdd vdd TP L=0.18U W=1.62U AS=0.5832P 
+ AD=0.5832P PS=3.96U PD=3.96U 
Mtr_23675 vdd n2732 cla_cell0_26_p vdd TP L=0.18U W=2.16U AS=0.7776P 
+ AD=0.7776P PS=5.04U PD=5.04U 
Mtr_23674 cla_cell7_26_p cla_cell0_26_p vdd vdd TP L=0.18U W=2.16U AS=0.7776P 
+ AD=0.7776P PS=5.04U PD=5.04U 
Mtr_23673 n2265 c_18_27_sum vdd vdd TP L=0.18U W=1.8U AS=0.648P AD=0.648P 
+ PS=4.32U PD=4.32U 
Mtr_23672 n2732 c_18_26_cout n2265 vdd TP L=0.18U W=1.8U AS=0.648P AD=0.648P 
+ PS=4.32U PD=4.32U 
Mtr_23671 vdd n2261 cla_cell0_27_g vdd TP L=0.18U W=1.62U AS=0.5832P 
+ AD=0.5832P PS=3.96U PD=3.96U 
Mtr_23670 n2261 c_18_27_cout vdd vdd TP L=0.18U W=1.44U AS=0.5184P AD=0.5184P 
+ PS=3.6U PD=3.6U 
Mtr_23669 vdd c_18_28_sum n2261 vdd TP L=0.18U W=1.44U AS=0.5184P AD=0.5184P 
+ PS=3.6U PD=3.6U 
Mtr_23668 cla_cell0_27_g n2261 vdd vdd TP L=0.18U W=1.62U AS=0.5832P 
+ AD=0.5832P PS=3.96U PD=3.96U 
Mtr_23667 vdd n2266 cla_cell0_27_p vdd TP L=0.18U W=2.16U AS=0.7776P 
+ AD=0.7776P PS=5.04U PD=5.04U 
Mtr_23666 cla_cell7_27_p cla_cell0_27_p vdd vdd TP L=0.18U W=2.16U AS=0.7776P 
+ AD=0.7776P PS=5.04U PD=5.04U 
Mtr_23665 n2267 c_18_27_cout vdd vdd TP L=0.18U W=1.8U AS=0.648P AD=0.648P 
+ PS=4.32U PD=4.32U 
Mtr_23664 n2266 c_18_28_sum n2267 vdd TP L=0.18U W=1.8U AS=0.648P AD=0.648P 
+ PS=4.32U PD=4.32U 
Mtr_23663 vdd n1896 cla_cell3_28_g1 vdd TP L=0.18U W=1.62U AS=0.5832P 
+ AD=0.5832P PS=3.96U PD=3.96U 
Mtr_23662 n1896 c_18_29_sum vdd vdd TP L=0.18U W=1.44U AS=0.5184P AD=0.5184P 
+ PS=3.6U PD=3.6U 
Mtr_23661 vdd c_18_28_cout n1896 vdd TP L=0.18U W=1.44U AS=0.5184P AD=0.5184P 
+ PS=3.6U PD=3.6U 
Mtr_23660 cla_cell3_28_g1 n1896 vdd vdd TP L=0.18U W=1.62U AS=0.5832P 
+ AD=0.5832P PS=3.96U PD=3.96U 
Mtr_23659 vdd n1899 cla_cell0_28_p vdd TP L=0.18U W=2.16U AS=0.7776P 
+ AD=0.7776P PS=5.04U PD=5.04U 
Mtr_23658 cla_cell7_28_p cla_cell0_28_p vdd vdd TP L=0.18U W=2.16U AS=0.7776P 
+ AD=0.7776P PS=5.04U PD=5.04U 
Mtr_23657 n1452 c_18_29_sum vdd vdd TP L=0.18U W=1.8U AS=0.648P AD=0.648P 
+ PS=4.32U PD=4.32U 
Mtr_23656 n1899 c_18_28_cout n1452 vdd TP L=0.18U W=1.8U AS=0.648P AD=0.648P 
+ PS=4.32U PD=4.32U 
Mtr_23655 vdd n1447 cla_cell0_29_g vdd TP L=0.18U W=1.62U AS=0.5832P 
+ AD=0.5832P PS=3.96U PD=3.96U 
Mtr_23654 n1447 c_18_29_cout vdd vdd TP L=0.18U W=1.44U AS=0.5184P AD=0.5184P 
+ PS=3.6U PD=3.6U 
Mtr_23653 vdd c_18_30_sum n1447 vdd TP L=0.18U W=1.44U AS=0.5184P AD=0.5184P 
+ PS=3.6U PD=3.6U 
Mtr_23652 cla_cell0_29_g n1447 vdd vdd TP L=0.18U W=1.62U AS=0.5832P 
+ AD=0.5832P PS=3.96U PD=3.96U 
Mtr_23651 vdd n1455 cla_cell0_29_p vdd TP L=0.18U W=2.16U AS=0.7776P 
+ AD=0.7776P PS=5.04U PD=5.04U 
Mtr_23650 cla_cell0_29_pn cla_cell0_29_p vdd vdd TP L=0.18U W=2.16U AS=0.7776P 
+ AD=0.7776P PS=5.04U PD=5.04U 
Mtr_23649 n1451 c_18_29_cout vdd vdd TP L=0.18U W=1.8U AS=0.648P AD=0.648P 
+ PS=4.32U PD=4.32U 
Mtr_23648 n1455 c_18_30_sum n1451 vdd TP L=0.18U W=1.8U AS=0.648P AD=0.648P 
+ PS=4.32U PD=4.32U 
Mtr_23647 vdd n1131 cla_cell0_30_g vdd TP L=0.18U W=1.62U AS=0.5832P 
+ AD=0.5832P PS=3.96U PD=3.96U 
Mtr_23646 n1131 c_18_31_sum vdd vdd TP L=0.18U W=1.44U AS=0.5184P AD=0.5184P 
+ PS=3.6U PD=3.6U 
Mtr_23645 vdd c_18_30_cout n1131 vdd TP L=0.18U W=1.44U AS=0.5184P AD=0.5184P 
+ PS=3.6U PD=3.6U 
Mtr_23644 cla_cell0_30_g n1131 vdd vdd TP L=0.18U W=1.62U AS=0.5832P 
+ AD=0.5832P PS=3.96U PD=3.96U 
Mtr_23643 vdd n1135 cla_cell0_30_p vdd TP L=0.18U W=2.16U AS=0.7776P 
+ AD=0.7776P PS=5.04U PD=5.04U 
Mtr_23642 cla_cell0_30_pn cla_cell0_30_p vdd vdd TP L=0.18U W=2.16U AS=0.7776P 
+ AD=0.7776P PS=5.04U PD=5.04U 
Mtr_23641 n987 c_18_31_sum vdd vdd TP L=0.18U W=1.8U AS=0.648P AD=0.648P 
+ PS=4.32U PD=4.32U 
Mtr_23640 n1135 c_18_30_cout n987 vdd TP L=0.18U W=1.8U AS=0.648P AD=0.648P 
+ PS=4.32U PD=4.32U 
Mtr_23639 vdd n689 cla_cell0_31_g vdd TP L=0.18U W=1.62U AS=0.5832P AD=0.5832P 
+ PS=3.96U PD=3.96U 
Mtr_23638 n689 c_18_31_cout vdd vdd TP L=0.18U W=1.44U AS=0.5184P AD=0.5184P 
+ PS=3.6U PD=3.6U 
Mtr_23637 vdd c_18_32_sum n689 vdd TP L=0.18U W=1.44U AS=0.5184P AD=0.5184P 
+ PS=3.6U PD=3.6U 
Mtr_23636 cla_cell0_31_g n689 vdd vdd TP L=0.18U W=1.62U AS=0.5832P AD=0.5832P 
+ PS=3.96U PD=3.96U 
Mtr_23635 vdd n694 cla_cell0_31_p vdd TP L=0.18U W=2.16U AS=0.7776P AD=0.7776P 
+ PS=5.04U PD=5.04U 
Mtr_23634 cla_cell0_31_pn cla_cell0_31_p vdd vdd TP L=0.18U W=2.16U AS=0.7776P 
+ AD=0.7776P PS=5.04U PD=5.04U 
Mtr_23633 n695 c_18_31_cout vdd vdd TP L=0.18U W=1.8U AS=0.648P AD=0.648P 
+ PS=4.32U PD=4.32U 
Mtr_23632 n694 c_18_32_sum n695 vdd TP L=0.18U W=1.8U AS=0.648P AD=0.648P 
+ PS=4.32U PD=4.32U 
Mtr_23631 vdd n394 cla_cell0_32_g vdd TP L=0.18U W=1.62U AS=0.5832P AD=0.5832P 
+ PS=3.96U PD=3.96U 
Mtr_23630 n394 cla_cell0_32_a vdd vdd TP L=0.18U W=1.44U AS=0.5184P AD=0.5184P 
+ PS=3.6U PD=3.6U 
Mtr_23629 vdd c_18_32_cout n394 vdd TP L=0.18U W=1.44U AS=0.5184P AD=0.5184P 
+ PS=3.6U PD=3.6U 
Mtr_23628 cla_cell0_32_g n394 vdd vdd TP L=0.18U W=1.62U AS=0.5832P AD=0.5832P 
+ PS=3.96U PD=3.96U 
Mtr_23627 vdd n398 cla_cell0_32_p vdd TP L=0.18U W=2.16U AS=0.7776P AD=0.7776P 
+ PS=5.04U PD=5.04U 
Mtr_23626 cla_cell0_32_pn cla_cell0_32_p vdd vdd TP L=0.18U W=2.16U AS=0.7776P 
+ AD=0.7776P PS=5.04U PD=5.04U 
Mtr_23625 n265 cla_cell0_32_a vdd vdd TP L=0.18U W=1.8U AS=0.648P AD=0.648P 
+ PS=4.32U PD=4.32U 
Mtr_23624 n398 c_18_32_cout n265 vdd TP L=0.18U W=1.8U AS=0.648P AD=0.648P 
+ PS=4.32U PD=4.32U 
Mtr_23623 n46 cla_cell0_32_a n44 vdd TP L=0.18U W=1.8U AS=0.648P AD=0.648P 
+ PS=4.32U PD=4.32U 
Mtr_23622 n44 cla_cell0_33_a vdd vdd TP L=0.18U W=1.8U AS=0.648P AD=0.648P 
+ PS=4.32U PD=4.32U 
Mtr_23621 cla_cell0_33_g n41 vdd vdd TP L=0.18U W=1.62U AS=0.5832P AD=0.5832P 
+ PS=3.96U PD=3.96U 
Mtr_23620 vdd cla_cell0_32_a n41 vdd TP L=0.18U W=1.44U AS=0.5184P AD=0.5184P 
+ PS=3.6U PD=3.6U 
Mtr_23619 n41 cla_cell0_33_a vdd vdd TP L=0.18U W=1.44U AS=0.5184P AD=0.5184P 
+ PS=3.6U PD=3.6U 
Mtr_23618 vdd n41 cla_cell0_33_g vdd TP L=0.18U W=1.62U AS=0.5832P AD=0.5832P 
+ PS=3.96U PD=3.96U 
Mtr_23617 vdd n46 cla_cell0_33_p vdd TP L=0.18U W=1.98U AS=0.7128P AD=0.7128P 
+ PS=4.68U PD=4.68U 
Mtr_23616 vdd cla_cell0_0_g n11781 vdd TP L=0.18U W=3.6U AS=1.296P AD=1.296P 
+ PS=7.92U PD=7.92U 
Mtr_23615 n11781 cla_cell0_1_p vdd vdd TP L=0.18U W=3.6U AS=1.296P AD=1.296P 
+ PS=7.92U PD=7.92U 
Mtr_23614 cla_cell1_1_co cla_cell0_1_g n11781 vdd TP L=0.18U W=3.6U AS=1.296P 
+ AD=1.296P PS=7.92U PD=7.92U 
Mtr_23613 vdd cla_cell0_2_g cla_cell1_2_ng vdd TP L=0.18U W=1.44U AS=0.5184P 
+ AD=0.5184P PS=3.6U PD=3.6U 
Mtr_23612 cla_cell1_2_np cla_cell0_2_p vdd vdd TP L=0.18U W=1.44U AS=0.5184P 
+ AD=0.5184P PS=3.6U PD=3.6U 
Mtr_23611 cla_cell1_3_g cla_cell0_3_g n11269 vdd TP L=0.18U W=0.9U AS=0.324P 
+ AD=0.324P PS=2.52U PD=2.52U 
Mtr_23610 n11269 cla_cell0_3_g cla_cell1_3_g vdd TP L=0.18U W=1.08U AS=0.3888P 
+ AD=0.3888P PS=2.88U PD=2.88U 
Mtr_23609 n11269 cla_cell0_2_g vdd vdd TP L=0.18U W=0.9U AS=0.324P AD=0.324P 
+ PS=2.52U PD=2.52U 
Mtr_23608 n11269 cla_cell0_2_g vdd vdd TP L=0.18U W=1.08U AS=0.3888P 
+ AD=0.3888P PS=2.88U PD=2.88U 
Mtr_23607 vdd cla_cell1_3_p1 n11269 vdd TP L=0.18U W=2.52U AS=0.9072P 
+ AD=0.9072P PS=5.76U PD=5.76U 
Mtr_23606 n11054 cla_cell0_2_p vdd vdd TP L=0.18U W=0.9U AS=0.324P AD=0.324P 
+ PS=2.52U PD=2.52U 
Mtr_23605 vdd cla_cell0_2_p n11054 vdd TP L=0.18U W=0.18U AS=0.0648P 
+ AD=0.0648P PS=1.08U PD=1.08U 
Mtr_23604 n11054 cla_cell1_3_p1 vdd vdd TP L=0.18U W=0.18U AS=0.0648P 
+ AD=0.0648P PS=1.08U PD=1.08U 
Mtr_23603 n11054 cla_cell1_3_p1 vdd vdd TP L=0.18U W=0.9U AS=0.324P AD=0.324P 
+ PS=2.52U PD=2.52U 
Mtr_23602 cla_cell2_5_tsg cla_cell0_5_g n10462 vdd TP L=0.18U W=0.9U AS=0.324P 
+ AD=0.324P PS=2.52U PD=2.52U 
Mtr_23601 n10462 cla_cell0_5_g cla_cell2_5_tsg vdd TP L=0.18U W=1.08U 
+ AS=0.3888P AD=0.3888P PS=2.88U PD=2.88U 
Mtr_23600 n10462 cla_cell0_4_g vdd vdd TP L=0.18U W=0.9U AS=0.324P AD=0.324P 
+ PS=2.52U PD=2.52U 
Mtr_23599 n10462 cla_cell0_4_g vdd vdd TP L=0.18U W=1.08U AS=0.3888P 
+ AD=0.3888P PS=2.88U PD=2.88U 
Mtr_23598 vdd cla_cell1_5_p1 n10462 vdd TP L=0.18U W=2.52U AS=0.9072P 
+ AD=0.9072P PS=5.76U PD=5.76U 
Mtr_23597 cla_cell2_5_tsp cla_cell3_4_p1 vdd vdd TP L=0.18U W=0.9U AS=0.324P 
+ AD=0.324P PS=2.52U PD=2.52U 
Mtr_23596 vdd cla_cell3_4_p1 cla_cell2_5_tsp vdd TP L=0.18U W=0.18U AS=0.0648P 
+ AD=0.0648P PS=1.08U PD=1.08U 
Mtr_23595 cla_cell2_5_tsp cla_cell1_5_p1 vdd vdd TP L=0.18U W=0.18U AS=0.0648P 
+ AD=0.0648P PS=1.08U PD=1.08U 
Mtr_23594 cla_cell2_5_tsp cla_cell1_5_p1 vdd vdd TP L=0.18U W=0.9U AS=0.324P 
+ AD=0.324P PS=2.52U PD=2.52U 
Mtr_23593 vdd cla_cell1_6_tsg cla_cell1_6_ng vdd TP L=0.18U W=1.44U AS=0.5184P 
+ AD=0.5184P PS=3.6U PD=3.6U 
Mtr_23592 cla_cell1_6_np cla_cell0_6_p vdd vdd TP L=0.18U W=1.44U AS=0.5184P 
+ AD=0.5184P PS=3.6U PD=3.6U 
Mtr_23591 cla_cell1_7_g cla_cell0_7_g n9632 vdd TP L=0.18U W=0.36U AS=0.1296P 
+ AD=0.1296P PS=1.44U PD=1.44U 
Mtr_23590 n9632 cla_cell0_7_g cla_cell1_7_g vdd TP L=0.18U W=0.36U AS=0.1296P 
+ AD=0.1296P PS=1.44U PD=1.44U 
Mtr_23589 n9632 cla_cell1_6_tsg vdd vdd TP L=0.18U W=0.36U AS=0.1296P 
+ AD=0.1296P PS=1.44U PD=1.44U 
Mtr_23588 n9632 cla_cell1_6_tsg vdd vdd TP L=0.18U W=0.36U AS=0.1296P 
+ AD=0.1296P PS=1.44U PD=1.44U 
Mtr_23587 cla_cell2_7_pl cla_cell0_6_p vdd vdd TP L=0.18U W=0.72U AS=0.2592P 
+ AD=0.2592P PS=2.16U PD=2.16U 
Mtr_23586 vdd cla_cell0_7_p n9632 vdd TP L=0.18U W=1.26U AS=0.4536P AD=0.4536P 
+ PS=3.24U PD=3.24U 