* Spice description of adder
* Date ( dd/mm/yyyy hh:mm:ss ): 26/02/2003 at  9:58:03

.INCLUDE ../techno/bsim4_dummy.hsp

.TEMP 125
.GLOBAL vdd vss
Vsupply vdd 0 DC 1.62
Vground vss 0 DC 0

.subckt adder vss vdd s_3 s_2 s_1 s_0 cout b_3 b_2 b_1 b_0 a_3 a_2 a_1 
+ a_0 
Mtr_00001 vss mbk_sig6_6 cell0_0.g_8 vss tn L=0.18U W=1.62U AS=0.5832P 
+ AD=0.5832P PS=3.96U PD=3.96U 
Mtr_00002 mbk_sig8_2 b_0_5 mbk_sig6_5 vss tn L=0.18U W=1.44U AS=0.5184P 
+ AD=0.5184P PS=3.6U PD=3.6U 
Mtr_00003 vss a_0_5 mbk_sig8_1 vss tn L=0.18U W=1.44U AS=0.5184P AD=0.5184P 
+ PS=3.6U PD=3.6U 
Mtr_00004 vss mbk_sig1_5 s_0_2 vss tn L=0.18U W=1.62U AS=0.5832P AD=0.5832P 
+ PS=3.96U PD=3.96U 
Mtr_00005 mbk_sig1_4 b_0_4 a_0_4 vss tn L=0.18U W=0.9U AS=0.324P AD=0.324P 
+ PS=2.52U PD=2.52U 
Mtr_00006 b_0_3 a_0_3 mbk_sig1_3 vss tn L=0.18U W=0.9U AS=0.324P AD=0.324P 
+ PS=2.52U PD=2.52U 
Mtr_00007 vss mbk_sig16_6 cell0_1.g_5 vss tn L=0.18U W=1.62U AS=0.5832P 
+ AD=0.5832P PS=3.96U PD=3.96U 
Mtr_00008 mbk_sig24_2 b_1_5 mbk_sig16_5 vss tn L=0.18U W=1.44U AS=0.5184P 
+ AD=0.5184P PS=3.6U PD=3.6U 
Mtr_00009 vss a_1_5 mbk_sig24_1 vss tn L=0.18U W=1.44U AS=0.5184P AD=0.5184P 
+ PS=3.6U PD=3.6U 
Mtr_00010 vss mbk_sig11_5 cell0_1.p_7 vss tn L=0.18U W=1.62U AS=0.5832P 
+ AD=0.5832P PS=3.96U PD=3.96U 
Mtr_00011 mbk_sig11_4 b_1_4 a_1_4 vss tn L=0.18U W=0.9U AS=0.324P AD=0.324P 
+ PS=2.52U PD=2.52U 
Mtr_00012 b_1_3 a_1_3 mbk_sig11_3 vss tn L=0.18U W=0.9U AS=0.324P AD=0.324P 
+ PS=2.52U PD=2.52U 
Mtr_00013 vss cell0_2.p_8 cell3_2.p_5 vss tn L=0.18U W=1.08U AS=0.3888P 
+ AD=0.3888P PS=2.88U PD=2.88U 
Mtr_00014 cell0_2.p_7 mbk_sig28_5 vss vss tn L=0.18U W=1.62U AS=0.5832P 
+ AD=0.5832P PS=3.96U PD=3.96U 
Mtr_00015 mbk_sig28_4 b_2_5 a_2_5 vss tn L=0.18U W=0.9U AS=0.324P AD=0.324P 
+ PS=2.52U PD=2.52U 
Mtr_00016 b_2_4 a_2_4 mbk_sig28_3 vss tn L=0.18U W=0.9U AS=0.324P AD=0.324P 
+ PS=2.52U PD=2.52U 
Mtr_00017 vss a_2_3 mbk_sig33_2 vss tn L=0.18U W=1.44U AS=0.5184P AD=0.5184P 
+ PS=3.6U PD=3.6U 
Mtr_00018 mbk_sig33_1 b_2_3 mbk_sig30_6 vss tn L=0.18U W=1.44U AS=0.5184P 
+ AD=0.5184P PS=3.6U PD=3.6U 
Mtr_00019 vss mbk_sig30_5 cell0_2.g_8 vss tn L=0.18U W=1.62U AS=0.5832P 
+ AD=0.5832P PS=3.96U PD=3.96U 
Mtr_00020 vss mbk_sig47_6 cell0_3.g_6 vss tn L=0.18U W=1.62U AS=0.5832P 
+ AD=0.5832P PS=3.96U PD=3.96U 
Mtr_00021 mbk_sig59_2 b_3_5 mbk_sig47_5 vss tn L=0.18U W=1.44U AS=0.5184P 
+ AD=0.5184P PS=3.6U PD=3.6U 
Mtr_00022 vss a_3_5 mbk_sig59_1 vss tn L=0.18U W=1.44U AS=0.5184P AD=0.5184P 
+ PS=3.6U PD=3.6U 
Mtr_00023 vss mbk_sig43_5 cell0_3.p_9 vss tn L=0.18U W=1.62U AS=0.5832P 
+ AD=0.5832P PS=3.96U PD=3.96U 
Mtr_00024 mbk_sig43_4 b_3_4 a_3_4 vss tn L=0.18U W=0.9U AS=0.324P AD=0.324P 
+ PS=2.52U PD=2.52U 
Mtr_00025 b_3_3 a_3_3 mbk_sig43_3 vss tn L=0.18U W=0.9U AS=0.324P AD=0.324P 
+ PS=2.52U PD=2.52U 
Mtr_00026 cell1_1.co_10 cell0_1.g_4 vss vss tn L=0.18U W=0.9U AS=0.324P 
+ AD=0.324P PS=2.52U PD=2.52U 
Mtr_00027 mbk_sig23_2 cell0_1.p_6 cell1_1.co_9 vss tn L=0.18U W=1.8U AS=0.648P 
+ AD=0.648P PS=4.32U PD=4.32U 
Mtr_00028 vss cell0_0.g_7 mbk_sig23_1 vss tn L=0.18U W=1.8U AS=0.648P 
+ AD=0.648P PS=4.32U PD=4.32U 
Mtr_00029 vss cell0_2.p_6 cell1_2.np_4 vss tn L=0.18U W=0.72U AS=0.2592P 
+ AD=0.2592P PS=2.16U PD=2.16U 
Mtr_00030 cell1_2.ng_4 cell0_2.g_7 vss vss tn L=0.18U W=0.72U AS=0.2592P 
+ AD=0.2592P PS=2.16U PD=2.16U 
Mtr_00031 vss cell0_3.p_8 mbk_sig58_2 vss tn L=0.18U W=1.26U AS=0.4536P 
+ AD=0.4536P PS=3.24U PD=3.24U 
Mtr_00032 mbk_sig58_1 cell0_2.p_5 mbk_sig52_5 vss tn L=0.18U W=1.26U 
+ AS=0.4536P AD=0.4536P PS=3.24U PD=3.24U 
Mtr_00033 cell1_3.g_6 cell0_3.g_5 vss vss tn L=0.18U W=0.54U AS=0.1944P 
+ AD=0.1944P PS=1.8U PD=1.8U 
Mtr_00034 mbk_sig57_2 cell0_3.p_7 cell1_3.g_5 vss tn L=0.18U W=1.26U 
+ AS=0.4536P AD=0.4536P PS=3.24U PD=3.24U 
Mtr_00035 vss cell0_2.g_6 mbk_sig57_1 vss tn L=0.18U W=1.26U AS=0.4536P 
+ AD=0.4536P PS=3.24U PD=3.24U 
Mtr_00036 vss cell1_1.co_8 mbk_sig35_3 vss tn L=0.18U W=1.44U AS=0.5184P 
+ AD=0.5184P PS=3.6U PD=3.6U 
Mtr_00037 mbk_sig35_2 cell1_2.ng_3 cell3_2.g_6 vss tn L=0.18U W=1.44U 
+ AS=0.5184P AD=0.5184P PS=3.6U PD=3.6U 
Mtr_00038 mbk_sig35_1 cell1_2.np_3 vss vss tn L=0.18U W=1.44U AS=0.5184P 
+ AD=0.5184P PS=3.6U PD=3.6U 
Mtr_00039 vss cell1_1.co_7 mbk_sig60_3 vss tn L=0.18U W=1.44U AS=0.5184P 
+ AD=0.5184P PS=3.6U PD=3.6U 
Mtr_00040 mbk_sig60_2 cell1_3.g_4 cout_3 vss tn L=0.18U W=1.44U AS=0.5184P 
+ AD=0.5184P PS=3.6U PD=3.6U 
Mtr_00041 mbk_sig60_1 mbk_sig52_4 vss vss tn L=0.18U W=1.44U AS=0.5184P 
+ AD=0.5184P PS=3.6U PD=3.6U 
Mtr_00042 s_1_2 mbk_sig21_5 vss vss tn L=0.18U W=3.6U AS=1.296P AD=1.296P 
+ PS=7.92U PD=7.92U 
Mtr_00043 mbk_sig21_4 cell0_1.p_5 cell0_0.g_6 vss tn L=0.18U W=0.9U AS=0.324P 
+ AD=0.324P PS=2.52U PD=2.52U 
Mtr_00044 mbk_sig21_3 cell0_0.g_5 cell0_1.p_4 vss tn L=0.18U W=0.9U AS=0.324P 
+ AD=0.324P PS=2.52U PD=2.52U 
Mtr_00045 s_2_2 mbk_sig37_5 vss vss tn L=0.18U W=3.6U AS=1.296P AD=1.296P 
+ PS=7.92U PD=7.92U 
Mtr_00046 mbk_sig37_4 cell1_1.co_6 cell3_2.p_4 vss tn L=0.18U W=0.9U AS=0.324P 
+ AD=0.324P PS=2.52U PD=2.52U 
Mtr_00047 mbk_sig37_3 cell3_2.p_3 cell1_1.co_5 vss tn L=0.18U W=0.9U AS=0.324P 
+ AD=0.324P PS=2.52U PD=2.52U 
Mtr_00048 s_3_2 mbk_sig56_5 vss vss tn L=0.18U W=3.6U AS=1.296P AD=1.296P 
+ PS=7.92U PD=7.92U 
Mtr_00049 mbk_sig56_4 cell0_3.p_6 cell3_2.g_5 vss tn L=0.18U W=0.9U AS=0.324P 
+ AD=0.324P PS=2.52U PD=2.52U 
Mtr_00050 mbk_sig56_3 cell3_2.g_4 cell0_3.p_5 vss tn L=0.18U W=0.9U AS=0.324P 
+ AD=0.324P PS=2.52U PD=2.52U 
Mtr_00051 vdd mbk_sig1_2 s_0_1 vdd tp L=0.18U W=1.98U AS=0.7128P AD=0.7128P 
+ PS=4.68U PD=4.68U 
Mtr_00052 vdd mbk_sig6_4 cell0_0.g_4 vdd tp L=0.18U W=1.62U AS=0.5832P 
+ AD=0.5832P PS=3.96U PD=3.96U 
Mtr_00053 mbk_sig6_3 a_0_2 vdd vdd tp L=0.18U W=1.44U AS=0.5184P AD=0.5184P 
+ PS=3.6U PD=3.6U 
Mtr_00054 vdd b_0_2 mbk_sig6_2 vdd tp L=0.18U W=1.44U AS=0.5184P AD=0.5184P 
+ PS=3.6U PD=3.6U 
Mtr_00055 cell0_0.g_3 mbk_sig6_1 vdd vdd tp L=0.18U W=1.62U AS=0.5832P 
+ AD=0.5832P PS=3.96U PD=3.96U 
Mtr_00056 mbk_sig10_2 a_0_1 vdd vdd tp L=0.18U W=1.8U AS=0.648P AD=0.648P 
+ PS=4.32U PD=4.32U 
Mtr_00057 mbk_sig1_1 b_0_1 mbk_sig10_1 vdd tp L=0.18U W=1.8U AS=0.648P 
+ AD=0.648P PS=4.32U PD=4.32U 
Mtr_00058 vdd mbk_sig11_2 cell0_1.p_3 vdd tp L=0.18U W=1.98U AS=0.7128P 
+ AD=0.7128P PS=4.68U PD=4.68U 
Mtr_00059 vdd mbk_sig16_4 cell0_1.g_3 vdd tp L=0.18U W=1.62U AS=0.5832P 
+ AD=0.5832P PS=3.96U PD=3.96U 
Mtr_00060 mbk_sig16_3 a_1_2 vdd vdd tp L=0.18U W=1.44U AS=0.5184P AD=0.5184P 
+ PS=3.6U PD=3.6U 
Mtr_00061 vdd b_1_2 mbk_sig16_2 vdd tp L=0.18U W=1.44U AS=0.5184P AD=0.5184P 
+ PS=3.6U PD=3.6U 
Mtr_00062 cell0_1.g_2 mbk_sig16_1 vdd vdd tp L=0.18U W=1.62U AS=0.5832P 
+ AD=0.5832P PS=3.96U PD=3.96U 
Mtr_00063 mbk_sig13_2 a_1_1 vdd vdd tp L=0.18U W=1.8U AS=0.648P AD=0.648P 
+ PS=4.32U PD=4.32U 
Mtr_00064 mbk_sig11_1 b_1_1 mbk_sig13_1 vdd tp L=0.18U W=1.8U AS=0.648P 
+ AD=0.648P PS=4.32U PD=4.32U 
Mtr_00065 mbk_sig28_2 b_2_2 mbk_sig39_2 vdd tp L=0.18U W=1.8U AS=0.648P 
+ AD=0.648P PS=4.32U PD=4.32U 
Mtr_00066 mbk_sig39_1 a_2_2 vdd vdd tp L=0.18U W=1.8U AS=0.648P AD=0.648P 
+ PS=4.32U PD=4.32U 
Mtr_00067 cell3_2.p_2 cell0_2.p_4 vdd vdd tp L=0.18U W=2.16U AS=0.7776P 
+ AD=0.7776P PS=5.04U PD=5.04U 
Mtr_00068 vdd mbk_sig28_1 cell0_2.p_3 vdd tp L=0.18U W=2.16U AS=0.7776P 
+ AD=0.7776P PS=5.04U PD=5.04U 
Mtr_00069 cell0_2.g_5 mbk_sig30_4 vdd vdd tp L=0.18U W=1.62U AS=0.5832P 
+ AD=0.5832P PS=3.96U PD=3.96U 
Mtr_00070 vdd b_2_1 mbk_sig30_3 vdd tp L=0.18U W=1.44U AS=0.5184P AD=0.5184P 
+ PS=3.6U PD=3.6U 
Mtr_00071 mbk_sig30_2 a_2_1 vdd vdd tp L=0.18U W=1.44U AS=0.5184P AD=0.5184P 
+ PS=3.6U PD=3.6U 
Mtr_00072 vdd mbk_sig30_1 cell0_2.g_4 vdd tp L=0.18U W=1.62U AS=0.5832P 
+ AD=0.5832P PS=3.96U PD=3.96U 
Mtr_00073 vdd mbk_sig43_2 cell0_3.p_4 vdd tp L=0.18U W=1.98U AS=0.7128P 
+ AD=0.7128P PS=4.68U PD=4.68U 
Mtr_00074 vdd mbk_sig47_4 cell0_3.g_4 vdd tp L=0.18U W=1.62U AS=0.5832P 
+ AD=0.5832P PS=3.96U PD=3.96U 
Mtr_00075 mbk_sig47_3 a_3_2 vdd vdd tp L=0.18U W=1.44U AS=0.5184P AD=0.5184P 
+ PS=3.6U PD=3.6U 
Mtr_00076 vdd b_3_2 mbk_sig47_2 vdd tp L=0.18U W=1.44U AS=0.5184P AD=0.5184P 
+ PS=3.6U PD=3.6U 
Mtr_00077 cell0_3.g_3 mbk_sig47_1 vdd vdd tp L=0.18U W=1.62U AS=0.5832P 
+ AD=0.5832P PS=3.96U PD=3.96U 
Mtr_00078 mbk_sig45_2 a_3_1 vdd vdd tp L=0.18U W=1.8U AS=0.648P AD=0.648P 
+ PS=4.32U PD=4.32U 
Mtr_00079 mbk_sig43_1 b_3_1 mbk_sig45_1 vdd tp L=0.18U W=1.8U AS=0.648P 
+ AD=0.648P PS=4.32U PD=4.32U 
Mtr_00080 cell1_1.co_4 cell0_1.g_1 mbk_sig18_3 vdd tp L=0.18U W=3.6U AS=1.296P 
+ AD=1.296P PS=7.92U PD=7.92U 
Mtr_00081 mbk_sig18_2 cell0_1.p_2 vdd vdd tp L=0.18U W=3.6U AS=1.296P 
+ AD=1.296P PS=7.92U PD=7.92U 
Mtr_00082 vdd cell0_0.g_2 mbk_sig18_1 vdd tp L=0.18U W=3.6U AS=1.296P 
+ AD=1.296P PS=7.92U PD=7.92U 
Mtr_00083 cell1_2.np_2 cell0_2.p_2 vdd vdd tp L=0.18U W=1.44U AS=0.5184P 
+ AD=0.5184P PS=3.6U PD=3.6U 
Mtr_00084 vdd cell0_2.g_3 cell1_2.ng_2 vdd tp L=0.18U W=1.44U AS=0.5184P 
+ AD=0.5184P PS=3.6U PD=3.6U 
Mtr_00085 mbk_sig52_3 cell0_3.p_3 vdd vdd tp L=0.18U W=0.72U AS=0.2592P 
+ AD=0.2592P PS=2.16U PD=2.16U 
Mtr_00086 vdd cell0_3.p_2 mbk_sig49_5 vdd tp L=0.18U W=1.26U AS=0.4536P 
+ AD=0.4536P PS=3.24U PD=3.24U 
Mtr_00087 mbk_sig52_2 cell0_2.p_1 vdd vdd tp L=0.18U W=0.72U AS=0.2592P 
+ AD=0.2592P PS=2.16U PD=2.16U 
Mtr_00088 mbk_sig49_4 cell0_2.g_2 vdd vdd tp L=0.18U W=0.36U AS=0.1296P 
+ AD=0.1296P PS=1.44U PD=1.44U 
Mtr_00089 mbk_sig49_3 cell0_2.g_1 vdd vdd tp L=0.18U W=0.36U AS=0.1296P 
+ AD=0.1296P PS=1.44U PD=1.44U 
Mtr_00090 mbk_sig49_2 cell0_3.g_2 cell1_3.g_3 vdd tp L=0.18U W=0.36U 
+ AS=0.1296P AD=0.1296P PS=1.44U PD=1.44U 
Mtr_00091 cell1_3.g_2 cell0_3.g_1 mbk_sig49_1 vdd tp L=0.18U W=0.36U 
+ AS=0.1296P AD=0.1296P PS=1.44U PD=1.44U 
Mtr_00092 mbk_sig41_2 cell1_1.co_3 vdd vdd tp L=0.18U W=2.88U AS=1.0368P 
+ AD=1.0368P PS=6.48U PD=6.48U 
Mtr_00093 cell3_2.g_3 cell1_2.np_1 mbk_sig41_1 vdd tp L=0.18U W=2.88U 
+ AS=1.0368P AD=1.0368P PS=6.48U PD=6.48U 
Mtr_00094 vdd cell1_2.ng_1 cell3_2.g_2 vdd tp L=0.18U W=1.44U AS=0.5184P 
+ AD=0.5184P PS=3.6U PD=3.6U 
Mtr_00095 mbk_sig54_2 cell1_1.co_2 vdd vdd tp L=0.18U W=2.88U AS=1.0368P 
+ AD=1.0368P PS=6.48U PD=6.48U 
Mtr_00096 cout_2 mbk_sig52_1 mbk_sig54_1 vdd tp L=0.18U W=2.88U AS=1.0368P 
+ AD=1.0368P PS=6.48U PD=6.48U 
Mtr_00097 vdd cell1_3.g_1 cout_1 vdd tp L=0.18U W=1.44U AS=0.5184P AD=0.5184P 
+ PS=3.6U PD=3.6U 
Mtr_00098 s_1_1 mbk_sig21_2 vdd vdd tp L=0.18U W=3.6U AS=1.296P AD=1.296P 
+ PS=7.92U PD=7.92U 
Mtr_00099 mbk_sig22_2 cell0_0.g_1 vdd vdd tp L=0.18U W=1.62U AS=0.5832P 
+ AD=0.5832P PS=3.96U PD=3.96U 
Mtr_00100 mbk_sig21_1 cell0_1.p_1 mbk_sig22_1 vdd tp L=0.18U W=1.62U 
+ AS=0.5832P AD=0.5832P PS=3.96U PD=3.96U 
Mtr_00101 s_2_1 mbk_sig37_2 vdd vdd tp L=0.18U W=3.6U AS=1.296P AD=1.296P 
+ PS=7.92U PD=7.92U 
Mtr_00102 mbk_sig37_1 cell3_2.p_1 mbk_sig42_2 vdd tp L=0.18U W=1.62U 
+ AS=0.5832P AD=0.5832P PS=3.96U PD=3.96U 
Mtr_00103 mbk_sig42_1 cell1_1.co_1 vdd vdd tp L=0.18U W=1.62U AS=0.5832P 
+ AD=0.5832P PS=3.96U PD=3.96U 
Mtr_00104 s_3_1 mbk_sig56_2 vdd vdd tp L=0.18U W=3.6U AS=1.296P AD=1.296P 
+ PS=7.92U PD=7.92U 
Mtr_00105 mbk_sig55_2 cell3_2.g_1 vdd vdd tp L=0.18U W=1.62U AS=0.5832P 
+ AD=0.5832P PS=3.96U PD=3.96U 
Mtr_00106 mbk_sig56_1 cell0_3.p_1 mbk_sig55_1 vdd tp L=0.18U W=1.62U 
+ AS=0.5832P AD=0.5832P PS=3.96U PD=3.96U 
R3_1 s_3_5 s_3_1 2.36
C3_11 s_3_5 vss 7.35e-16
C3_12 s_3_1 vss 7.35e-16
R3_2 s_3 s_3_5 2.91
C3_21 s_3 vss 9.3e-16
C3_22 s_3_5 vss 9.3e-16
R3_3 s_3_4 s_3_2 1.01
C3_31 s_3_4 vss 6.3e-16
C3_32 s_3_2 vss 6.3e-16
R3_4 s_3 s_3_4 1.01
C3_41 s_3 vss 4.5e-17
C3_42 s_3_4 vss 4.5e-17

R4_1 s_2_5 s_2_1 1.34
C4_11 s_2_5 vss 5.85e-16
C4_12 s_2_1 vss 5.85e-16
R4_2 s_2 s_2_5 1.82
C4_21 s_2 vss 8.1e-16
C4_22 s_2_5 vss 8.1e-16
R4_3 s_2_4 s_2_2 1.45
C4_31 s_2_4 vss 8.7e-16
C4_32 s_2_2 vss 8.7e-16
R4_4 s_2 s_2_4 1.31
C4_41 s_2 vss 9.25e-16
C4_42 s_2_4 vss 9.25e-16

R5_1 s_1_5 s_1_1 0.3
C5_11 s_1_5 vss 9.5e-16
C5_12 s_1_1 vss 9.5e-16
R5_2 s_1 s_1_5 0.78
C5_21 s_1 vss 9.15e-16
C5_22 s_1_5 vss 9.15e-16
R5_3 s_1_4 s_1_2 1.6
C5_31 s_1_4 vss 8.55e-16
C5_32 s_1_2 vss 8.55e-16
R5_4 s_1 s_1_4 1.83
C5_41 s_1 vss 6.2e-16
C5_42 s_1_4 vss 6.2e-16

R6_1 s_0_5 s_0_1 2.47
C6_11 s_0_5 vss 7.4e-16
C6_12 s_0_1 vss 7.4e-16
R6_2 s_0 s_0_5 1.33
C6_21 s_0 vss 2.25e-16
C6_22 s_0_5 vss 2.25e-16
R6_3 s_0_4 s_0_2 2.21
C6_31 s_0_4 vss 5.15e-16
C6_32 s_0_2 vss 5.15e-16
R6_4 s_0 s_0_4 2.74
C6_41 s_0 vss 7.1e-16
C6_42 s_0_4 vss 7.1e-16

R7_1 cout_8 cout_1 2.29
C7_11 cout_8 vss 7.35e-16
C7_12 cout_1 vss 7.35e-16
R7_2 cout cout_8 0.01
C7_21 cout vss 4.8e-16
C7_22 cout_8 vss 4.8e-16
R7_3 cout_7 cout_2 0.67
C7_31 cout_7 vss 3.65e-16
C7_32 cout_2 vss 3.65e-16
R7_4 cout_5 cout_7 0.53
C7_41 cout_5 vss 8.75e-16
C7_42 cout_7 vss 8.75e-16
R7_5 cout_6 cout_3 2.49
C7_51 cout_6 vss 1.55e-16
C7_52 cout_3 vss 1.55e-16
R7_6 cout_5 cout_6 0.65
C7_61 cout_5 vss 6.2e-16
C7_62 cout_6 vss 6.2e-16
R7_7 cout cout_5 0.56
C7_71 cout vss 5.65e-16
C7_72 cout_5 vss 5.65e-16

R8_1 b_3_14 b_3_1 2.32
C8_11 b_3_14 vss 4.15e-16
C8_12 b_3_1 vss 4.15e-16
R8_2 b_3_12 b_3_14 0.65
C8_21 b_3_12 vss 4.4e-16
C8_22 b_3_14 vss 4.4e-16
R8_3 b_3_13 b_3_2 2.57
C8_31 b_3_13 vss 7.6e-16
C8_32 b_3_2 vss 7.6e-16
R8_4 b_3_12 b_3_13 0.4
C8_41 b_3_12 vss 1.1e-16
C8_42 b_3_13 vss 1.1e-16
R8_5 b_3 b_3_12 1.81
C8_51 b_3 vss 8.25e-16
C8_52 b_3_12 vss 8.25e-16
R8_6 b_3_11 b_3_3 0.71
C8_61 b_3_11 vss 7.8e-16
C8_62 b_3_3 vss 7.8e-16
R8_7 b_3_7 b_3_11 2.76
C8_71 b_3_7 vss 5.2e-16
C8_72 b_3_11 vss 5.2e-16
R8_8 b_3_10 b_3_4 0.02
C8_81 b_3_10 vss 3.5e-16
C8_82 b_3_4 vss 3.5e-16
R8_9 b_3_8 b_3_10 2.23
C8_91 b_3_8 vss 4.2e-16
C8_92 b_3_10 vss 4.2e-16
R8_10 b_3_9 b_3_5 0.32
C8_101 b_3_9 vss 6.3e-16
C8_102 b_3_5 vss 6.3e-16
R8_11 b_3_8 b_3_9 0.76
C8_111 b_3_8 vss 5.3e-16
C8_112 b_3_9 vss 5.3e-16
R8_12 b_3_7 b_3_8 2.53
C8_121 b_3_7 vss 4e-16
C8_122 b_3_8 vss 4e-16
R8_13 b_3 b_3_7 2.59
C8_131 b_3 vss 7.45e-16
C8_132 b_3_7 vss 7.45e-16

R9_1 b_2_14 b_2_1 2.13
C9_11 b_2_14 vss 9e-16
C9_12 b_2_1 vss 9e-16
R9_2 b_2 b_2_14 1.9
C9_21 b_2 vss 9.55e-16
C9_22 b_2_14 vss 9.55e-16
R9_3 b_2_13 b_2_2 1.28
C9_31 b_2_13 vss 6.15e-16
C9_32 b_2_2 vss 6.15e-16
R9_4 b_2_11 b_2_13 2.92
C9_41 b_2_11 vss 6.15e-16
C9_42 b_2_13 vss 6.15e-16
R9_5 b_2_12 b_2_3 1.06
C9_51 b_2_12 vss 9e-17
C9_52 b_2_3 vss 9e-17
R9_6 b_2_11 b_2_12 1.31
C9_61 b_2_11 vss 1.7e-16
C9_62 b_2_12 vss 1.7e-16
R9_7 b_2_9 b_2_11 1.3
C9_71 b_2_9 vss 6.55e-16
C9_72 b_2_11 vss 6.55e-16
R9_8 b_2_10 b_2_4 1.94
C9_81 b_2_10 vss 7e-16
C9_82 b_2_4 vss 7e-16
R9_9 b_2_9 b_2_10 0.19
C9_91 b_2_9 vss 3.55e-16
C9_92 b_2_10 vss 3.55e-16
R9_10 b_2_7 b_2_9 0.33
C9_101 b_2_7 vss 4e-16
C9_102 b_2_9 vss 4e-16
R9_11 b_2_8 b_2_5 1.92
C9_111 b_2_8 vss 6.5e-16
C9_112 b_2_5 vss 6.5e-16
R9_12 b_2_7 b_2_8 2.26
C9_121 b_2_7 vss 4.15e-16
C9_122 b_2_8 vss 4.15e-16
R9_13 b_2 b_2_7 1.2
C9_131 b_2 vss 6.9e-16
C9_132 b_2_7 vss 6.9e-16

R10_1 b_1_14 b_1_1 1.55
C10_11 b_1_14 vss 5.55e-16
C10_12 b_1_1 vss 5.55e-16
R10_2 b_1_10 b_1_14 0.99
C10_21 b_1_10 vss 4.3e-16
C10_22 b_1_14 vss 4.3e-16
R10_3 b_1_13 b_1_2 1.03
C10_31 b_1_13 vss 4.8e-16
C10_32 b_1_2 vss 4.8e-16
R10_4 b_1_11 b_1_13 1.53
C10_41 b_1_11 vss 7.3e-16
C10_42 b_1_13 vss 7.3e-16
R10_5 b_1_12 b_1_3 0.08
C10_51 b_1_12 vss 3.65e-16
C10_52 b_1_3 vss 3.65e-16
R10_6 b_1_11 b_1_12 0.6
C10_61 b_1_11 vss 1.35e-16
C10_62 b_1_12 vss 1.35e-16
R10_7 b_1_10 b_1_11 1.29
C10_71 b_1_10 vss 3.45e-16
C10_72 b_1_11 vss 3.45e-16
R10_8 b_1 b_1_10 1.66
C10_81 b_1 vss 8.05e-16
C10_82 b_1_10 vss 8.05e-16
R10_9 b_1_9 b_1_4 1.25
C10_91 b_1_9 vss 9.55e-16
C10_92 b_1_4 vss 9.55e-16
R10_10 b_1_7 b_1_9 2.31
C10_101 b_1_7 vss 1.2e-16
C10_102 b_1_9 vss 1.2e-16
R10_11 b_1_8 b_1_5 1.45
C10_111 b_1_8 vss 6.95e-16
C10_112 b_1_5 vss 6.95e-16
R10_12 b_1_7 b_1_8 0.75
C10_121 b_1_7 vss 1.5e-16
C10_122 b_1_8 vss 1.5e-16
R10_13 b_1 b_1_7 0.15
C10_131 b_1 vss 2.2e-16
C10_132 b_1_7 vss 2.2e-16

R11_1 b_0_14 b_0_1 1.94
C11_11 b_0_14 vss 4e-17
C11_12 b_0_1 vss 4e-17
R11_2 b_0_12 b_0_14 2.08
C11_21 b_0_12 vss 7.75e-16
C11_22 b_0_14 vss 7.75e-16
R11_3 b_0_13 b_0_2 1.94
C11_31 b_0_13 vss 6.85e-16
C11_32 b_0_2 vss 6.85e-16
R11_4 b_0_12 b_0_13 1.92
C11_41 b_0_12 vss 7.7e-16
C11_42 b_0_13 vss 7.7e-16
R11_5 b_0 b_0_12 2.9
C11_51 b_0 vss 3.9e-16
C11_52 b_0_12 vss 3.9e-16
R11_6 b_0_11 b_0_3 1.28
C11_61 b_0_11 vss 9.9e-16
C11_62 b_0_3 vss 9.9e-16
R11_7 b_0_7 b_0_11 1.8
C11_71 b_0_7 vss 8.4e-16
C11_72 b_0_11 vss 8.4e-16
R11_8 b_0_10 b_0_4 2.7
C11_81 b_0_10 vss 7.8e-16
C11_82 b_0_4 vss 7.8e-16
R11_9 b_0_8 b_0_10 2.58
C11_91 b_0_8 vss 6.7e-16
C11_92 b_0_10 vss 6.7e-16
R11_10 b_0_9 b_0_5 2.52
C11_101 b_0_9 vss 8.25e-16
C11_102 b_0_5 vss 8.25e-16
R11_11 b_0_8 b_0_9 2.8
C11_111 b_0_8 vss 4.45e-16
C11_112 b_0_9 vss 4.45e-16
R11_12 b_0_7 b_0_8 2.07
C11_121 b_0_7 vss 6.3e-16
C11_122 b_0_8 vss 6.3e-16
R11_13 b_0 b_0_7 0.11
C11_131 b_0 vss 4e-16
C11_132 b_0_7 vss 4e-16

R12_1 a_3_14 a_3_1 0.34
C12_11 a_3_14 vss 3.6e-16
C12_12 a_3_1 vss 3.6e-16
R12_2 a_3_10 a_3_14 1.26
C12_21 a_3_10 vss 1.5e-17
C12_22 a_3_14 vss 1.5e-17
R12_3 a_3_13 a_3_2 1.27
C12_31 a_3_13 vss 9.3e-16
C12_32 a_3_2 vss 9.3e-16
R12_4 a_3_11 a_3_13 0.94
C12_41 a_3_11 vss 5e-16
C12_42 a_3_13 vss 5e-16
R12_5 a_3_12 a_3_3 0.1
C12_51 a_3_12 vss 2.95e-16
C12_52 a_3_3 vss 2.95e-16
R12_6 a_3_11 a_3_12 1.87
C12_61 a_3_11 vss 5e-18
C12_62 a_3_12 vss 5e-18
R12_7 a_3_10 a_3_11 2.92
R12_8 a_3_8 a_3_10 0.55
C12_81 a_3_8 vss 9.1e-16
C12_82 a_3_10 vss 9.1e-16
R12_9 a_3_9 a_3_4 2.92
C12_91 a_3_9 vss 2.55e-16
C12_92 a_3_4 vss 2.55e-16
R12_10 a_3_8 a_3_9 2.82
C12_101 a_3_8 vss 2.15e-16
C12_102 a_3_9 vss 2.15e-16
R12_11 a_3 a_3_8 0.82
C12_111 a_3 vss 7.55e-16
C12_112 a_3_8 vss 7.55e-16
R12_12 a_3_7 a_3_5 1.77
C12_121 a_3_7 vss 4.4e-16
C12_122 a_3_5 vss 4.4e-16
R12_13 a_3 a_3_7 1.99
C12_131 a_3 vss 8.9e-16
C12_132 a_3_7 vss 8.9e-16

R13_1 a_2_14 a_2_1 0.48
C13_11 a_2_14 vss 8.7e-16
C13_12 a_2_1 vss 8.7e-16
R13_2 a_2 a_2_14 1.64
C13_21 a_2 vss 5.1e-16
C13_22 a_2_14 vss 5.1e-16
R13_3 a_2_13 a_2_2 1.15
C13_31 a_2_13 vss 7.3e-16
C13_32 a_2_2 vss 7.3e-16
R13_4 a_2_7 a_2_13 2.93
C13_41 a_2_7 vss 3.2e-16
C13_42 a_2_13 vss 3.2e-16
R13_5 a_2_12 a_2_3 2.31
C13_51 a_2_12 vss 4.15e-16
C13_52 a_2_3 vss 4.15e-16
R13_6 a_2_8 a_2_12 2.24
C13_61 a_2_8 vss 8e-16
C13_62 a_2_12 vss 8e-16
R13_7 a_2_11 a_2_4 2.36
C13_71 a_2_11 vss 6.45e-16
C13_72 a_2_4 vss 6.45e-16
R13_8 a_2_9 a_2_11 2.72
C13_81 a_2_9 vss 1.4e-16
C13_82 a_2_11 vss 1.4e-16
R13_9 a_2_10 a_2_5 2.11
C13_91 a_2_10 vss 2e-16
C13_92 a_2_5 vss 2e-16
R13_10 a_2_9 a_2_10 0.84
C13_101 a_2_9 vss 1.75e-16
C13_102 a_2_10 vss 1.75e-16
R13_11 a_2_8 a_2_9 1.63
C13_111 a_2_8 vss 7.75e-16
C13_112 a_2_9 vss 7.75e-16
R13_12 a_2_7 a_2_8 1.4
C13_121 a_2_7 vss 1.7e-16
C13_122 a_2_8 vss 1.7e-16
R13_13 a_2 a_2_7 1.53
C13_131 a_2 vss 6.9e-16
C13_132 a_2_7 vss 6.9e-16

R14_1 a_1_14 a_1_1 0.02
C14_11 a_1_14 vss 7.75e-16
C14_12 a_1_1 vss 7.75e-16
R14_2 a_1 a_1_14 0.08
C14_21 a_1 vss 5.8e-16
C14_22 a_1_14 vss 5.8e-16
R14_3 a_1_13 a_1_2 1.07
C14_31 a_1_13 vss 2.55e-16
C14_32 a_1_2 vss 2.55e-16
R14_4 a_1_7 a_1_13 0.78
C14_41 a_1_7 vss 3.9e-16
C14_42 a_1_13 vss 3.9e-16
R14_5 a_1_12 a_1_3 0.92
C14_51 a_1_12 vss 2.5e-16
C14_52 a_1_3 vss 2.5e-16
R14_6 a_1_8 a_1_12 0.87
C14_61 a_1_8 vss 4.2e-16
C14_62 a_1_12 vss 4.2e-16
R14_7 a_1_11 a_1_4 0.63
C14_71 a_1_11 vss 1e-16
C14_72 a_1_4 vss 1e-16
R14_8 a_1_9 a_1_11 2.47
C14_81 a_1_9 vss 3e-17
C14_82 a_1_11 vss 3e-17
R14_9 a_1_10 a_1_5 1.24
C14_91 a_1_10 vss 4.15e-16
C14_92 a_1_5 vss 4.15e-16
R14_10 a_1_9 a_1_10 0.42
C14_101 a_1_9 vss 8.35e-16
C14_102 a_1_10 vss 8.35e-16
R14_11 a_1_8 a_1_9 0.16
C14_111 a_1_8 vss 6.05e-16
C14_112 a_1_9 vss 6.05e-16
R14_12 a_1_7 a_1_8 1.49
C14_121 a_1_7 vss 4.4e-16
C14_122 a_1_8 vss 4.4e-16
R14_13 a_1 a_1_7 0.99
C14_131 a_1 vss 8.15e-16
C14_132 a_1_7 vss 8.15e-16

R15_1 a_0_14 a_0_1 2.05
C15_11 a_0_14 vss 2.1e-16
C15_12 a_0_1 vss 2.1e-16
R15_2 a_0_8 a_0_14 2.23
C15_21 a_0_8 vss 1.15e-16
C15_22 a_0_14 vss 1.15e-16
R15_3 a_0_13 a_0_2 0.04
C15_31 a_0_13 vss 4.4e-16
C15_32 a_0_2 vss 4.4e-16
R15_4 a_0_11 a_0_13 2.81
C15_41 a_0_11 vss 9.7e-16
C15_42 a_0_13 vss 9.7e-16
R15_5 a_0_12 a_0_3 2.08
C15_51 a_0_12 vss 6.75e-16
C15_52 a_0_3 vss 6.75e-16
R15_6 a_0_11 a_0_12 1.8
C15_61 a_0_11 vss 3.85e-16
C15_62 a_0_12 vss 3.85e-16
R15_7 a_0_9 a_0_11 0.44
C15_71 a_0_9 vss 7.85e-16
C15_72 a_0_11 vss 7.85e-16
R15_8 a_0_10 a_0_4 1.15
C15_81 a_0_10 vss 1.25e-16
C15_82 a_0_4 vss 1.25e-16
R15_9 a_0_9 a_0_10 0.99
C15_91 a_0_9 vss 8.85e-16
C15_92 a_0_10 vss 8.85e-16
R15_10 a_0_8 a_0_9 2.45
C15_101 a_0_8 vss 6.7e-16
C15_102 a_0_9 vss 6.7e-16
R15_11 a_0 a_0_8 0.8
C15_111 a_0 vss 6.15e-16
C15_112 a_0_8 vss 6.15e-16
R15_12 a_0_7 a_0_5 0.81
C15_121 a_0_7 vss 4.6e-16
C15_122 a_0_5 vss 4.6e-16
R15_13 a_0 a_0_7 0.43
C15_131 a_0 vss 7.8e-16
C15_132 a_0_7 vss 7.8e-16

R16_1 mbk_sig6_14 mbk_sig6_1 2.96
C16_11 mbk_sig6_14 vss 7.2e-16
C16_12 mbk_sig6_1 vss 7.2e-16
R16_2 mbk_sig6_6 mbk_sig6_14 0.71
C16_21 mbk_sig6_6 vss 4e-17
C16_22 mbk_sig6_14 vss 4e-17
R16_3 mbk_sig6_13 mbk_sig6_2 0.99
C16_31 mbk_sig6_13 vss 5.2e-16
C16_32 mbk_sig6_2 vss 5.2e-16
R16_4 mbk_sig6_7 mbk_sig6_13 1.74
C16_41 mbk_sig6_7 vss 4.5e-16
C16_42 mbk_sig6_13 vss 4.5e-16
R16_5 mbk_sig6_12 mbk_sig6_3 0.74
C16_51 mbk_sig6_12 vss 7.1e-16
C16_52 mbk_sig6_3 vss 7.1e-16
R16_6 mbk_sig6_10 mbk_sig6_12 1.11
C16_61 mbk_sig6_10 vss 9.55e-16
C16_62 mbk_sig6_12 vss 9.55e-16
R16_7 mbk_sig6_11 mbk_sig6_4 1.11
C16_71 mbk_sig6_11 vss 4.1e-16
C16_72 mbk_sig6_4 vss 4.1e-16
R16_8 mbk_sig6_10 mbk_sig6_11 0.91
C16_81 mbk_sig6_10 vss 1.65e-16
C16_82 mbk_sig6_11 vss 1.65e-16
R16_9 mbk_sig6_8 mbk_sig6_10 3
C16_91 mbk_sig6_8 vss 4.65e-16
C16_92 mbk_sig6_10 vss 4.65e-16
R16_10 mbk_sig6_9 mbk_sig6_5 2.12
C16_101 mbk_sig6_9 vss 5e-17
C16_102 mbk_sig6_5 vss 5e-17
R16_11 mbk_sig6_8 mbk_sig6_9 2.29
C16_111 mbk_sig6_8 vss 4.95e-16
C16_112 mbk_sig6_9 vss 4.95e-16
R16_12 mbk_sig6_7 mbk_sig6_8 2
C16_121 mbk_sig6_7 vss 8.75e-16
C16_122 mbk_sig6_8 vss 8.75e-16
R16_13 mbk_sig6_6 mbk_sig6_7 0.17
C16_131 mbk_sig6_6 vss 7.3e-16
C16_132 mbk_sig6_7 vss 7.3e-16

R17_1 cell0_0.g_20 cell0_0.g_1 0.24
C17_11 cell0_0.g_20 vss 7.1e-16
C17_12 cell0_0.g_1 vss 7.1e-16
R17_2 cell0_0.g_18 cell0_0.g_20 2.05
C17_21 cell0_0.g_18 vss 1.15e-16
C17_22 cell0_0.g_20 vss 1.15e-16
R17_3 cell0_0.g_19 cell0_0.g_2 0.86
C17_31 cell0_0.g_19 vss 5.45e-16
C17_32 cell0_0.g_2 vss 5.45e-16
R17_4 cell0_0.g_18 cell0_0.g_19 2
C17_41 cell0_0.g_18 vss 6.3e-16
C17_42 cell0_0.g_19 vss 6.3e-16
R17_5 cell0_0.g_14 cell0_0.g_18 1.98
C17_51 cell0_0.g_14 vss 9.5e-17
C17_52 cell0_0.g_18 vss 9.5e-17
R17_6 cell0_0.g_17 cell0_0.g_3 1.51
C17_61 cell0_0.g_17 vss 1.15e-16
C17_62 cell0_0.g_3 vss 1.15e-16
R17_7 cell0_0.g_15 cell0_0.g_17 1.22
C17_71 cell0_0.g_15 vss 6.1e-16
C17_72 cell0_0.g_17 vss 6.1e-16
R17_8 cell0_0.g_16 cell0_0.g_4 2.89
C17_81 cell0_0.g_16 vss 1.9e-16
C17_82 cell0_0.g_4 vss 1.9e-16
R17_9 cell0_0.g_15 cell0_0.g_16 0.06
C17_91 cell0_0.g_15 vss 8.35e-16
C17_92 cell0_0.g_16 vss 8.35e-16
R17_10 cell0_0.g_14 cell0_0.g_15 0.02
C17_101 cell0_0.g_14 vss 6.5e-16
C17_102 cell0_0.g_15 vss 6.5e-16
R17_11 cell0_0.g_10 cell0_0.g_14 0.39
C17_111 cell0_0.g_10 vss 5.55e-16
C17_112 cell0_0.g_14 vss 5.55e-16
R17_12 cell0_0.g_13 cell0_0.g_5 2.8
C17_121 cell0_0.g_13 vss 3.45e-16
C17_122 cell0_0.g_5 vss 3.45e-16
R17_13 cell0_0.g_11 cell0_0.g_13 1.72
C17_131 cell0_0.g_11 vss 2.3e-16
C17_132 cell0_0.g_13 vss 2.3e-16
R17_14 cell0_0.g_12 cell0_0.g_6 1.64
C17_141 cell0_0.g_12 vss 4.8e-16
C17_142 cell0_0.g_6 vss 4.8e-16
R17_15 cell0_0.g_11 cell0_0.g_12 2.15
C17_151 cell0_0.g_11 vss 8.85e-16
C17_152 cell0_0.g_12 vss 8.85e-16
R17_16 cell0_0.g_10 cell0_0.g_11 2.71
C17_161 cell0_0.g_10 vss 9.65e-16
C17_162 cell0_0.g_11 vss 9.65e-16
R17_17 cell0_0.g_8 cell0_0.g_10 1.06
C17_171 cell0_0.g_8 vss 7.35e-16
C17_172 cell0_0.g_10 vss 7.35e-16
R17_18 cell0_0.g_9 cell0_0.g_7 1.27
C17_181 cell0_0.g_9 vss 1.9e-16
C17_182 cell0_0.g_7 vss 1.9e-16
R17_19 cell0_0.g_8 cell0_0.g_9 2.8
C17_191 cell0_0.g_8 vss 7.9e-16
C17_192 cell0_0.g_9 vss 7.9e-16

R18_1 mbk_sig8_2 mbk_sig8_1 1.87
C18_11 mbk_sig8_2 vss 7.4e-16
C18_12 mbk_sig8_1 vss 7.4e-16

R19_1 mbk_sig1_11 mbk_sig1_1 0.88
C19_11 mbk_sig1_11 vss 4.75e-16
C19_12 mbk_sig1_1 vss 4.75e-16
R19_2 mbk_sig1_9 mbk_sig1_11 1.63
C19_21 mbk_sig1_9 vss 1.35e-16
C19_22 mbk_sig1_11 vss 1.35e-16
R19_3 mbk_sig1_10 mbk_sig1_2 0.63
C19_31 mbk_sig1_10 vss 2.65e-16
C19_32 mbk_sig1_2 vss 2.65e-16
R19_4 mbk_sig1_9 mbk_sig1_10 1.05
C19_41 mbk_sig1_9 vss 2.7e-16
C19_42 mbk_sig1_10 vss 2.7e-16
R19_5 mbk_sig1_5 mbk_sig1_9 1.31
C19_51 mbk_sig1_5 vss 1.7e-16
C19_52 mbk_sig1_9 vss 1.7e-16
R19_6 mbk_sig1_8 mbk_sig1_3 1.1
C19_61 mbk_sig1_8 vss 6.65e-16
C19_62 mbk_sig1_3 vss 6.65e-16
R19_7 mbk_sig1_6 mbk_sig1_8 0.35
C19_71 mbk_sig1_6 vss 3.8e-16
C19_72 mbk_sig1_8 vss 3.8e-16
R19_8 mbk_sig1_7 mbk_sig1_4 2.52
C19_81 mbk_sig1_7 vss 2.55e-16
C19_82 mbk_sig1_4 vss 2.55e-16
R19_9 mbk_sig1_6 mbk_sig1_7 1.94
C19_91 mbk_sig1_6 vss 2.4e-16
C19_92 mbk_sig1_7 vss 2.4e-16
R19_10 mbk_sig1_5 mbk_sig1_6 2.88
C19_101 mbk_sig1_5 vss 3.15e-16
C19_102 mbk_sig1_6 vss 3.15e-16

R20_1 mbk_sig16_14 mbk_sig16_1 2.14
C20_11 mbk_sig16_14 vss 4.95e-16
C20_12 mbk_sig16_1 vss 4.95e-16
R20_2 mbk_sig16_12 mbk_sig16_14 0.35
C20_21 mbk_sig16_12 vss 9.65e-16
C20_22 mbk_sig16_14 vss 9.65e-16
R20_3 mbk_sig16_13 mbk_sig16_2 0.35
C20_31 mbk_sig16_13 vss 4e-17
C20_32 mbk_sig16_2 vss 4e-17
R20_4 mbk_sig16_12 mbk_sig16_13 0.61
C20_41 mbk_sig16_12 vss 3.95e-16
C20_42 mbk_sig16_13 vss 3.95e-16
R20_5 mbk_sig16_6 mbk_sig16_12 1.83
C20_51 mbk_sig16_6 vss 5.55e-16
C20_52 mbk_sig16_12 vss 5.55e-16
R20_6 mbk_sig16_11 mbk_sig16_3 1.02
C20_61 mbk_sig16_11 vss 9.2e-16
C20_62 mbk_sig16_3 vss 9.2e-16
R20_7 mbk_sig16_7 mbk_sig16_11 0.43
C20_71 mbk_sig16_7 vss 5.55e-16
C20_72 mbk_sig16_11 vss 5.55e-16
R20_8 mbk_sig16_10 mbk_sig16_4 2.68
C20_81 mbk_sig16_10 vss 9.35e-16
C20_82 mbk_sig16_4 vss 9.35e-16
R20_9 mbk_sig16_8 mbk_sig16_10 1.42
C20_91 mbk_sig16_8 vss 5.75e-16
C20_92 mbk_sig16_10 vss 5.75e-16
R20_10 mbk_sig16_9 mbk_sig16_5 1.78
C20_101 mbk_sig16_9 vss 3.55e-16
C20_102 mbk_sig16_5 vss 3.55e-16
R20_11 mbk_sig16_8 mbk_sig16_9 1.87
C20_111 mbk_sig16_8 vss 8.25e-16
C20_112 mbk_sig16_9 vss 8.25e-16
R20_12 mbk_sig16_7 mbk_sig16_8 1.93
C20_121 mbk_sig16_7 vss 3.35e-16
C20_122 mbk_sig16_8 vss 3.35e-16
R20_13 mbk_sig16_6 mbk_sig16_7 0.56
C20_131 mbk_sig16_6 vss 1.9e-16
C20_132 mbk_sig16_7 vss 1.9e-16

R21_1 cell0_1.g_11 cell0_1.g_1 1.24
C21_11 cell0_1.g_11 vss 1.6e-16
C21_12 cell0_1.g_1 vss 1.6e-16
R21_2 cell0_1.g_9 cell0_1.g_11 0.6
C21_21 cell0_1.g_9 vss 8.65e-16
C21_22 cell0_1.g_11 vss 8.65e-16
R21_3 cell0_1.g_10 cell0_1.g_2 2.49
C21_31 cell0_1.g_10 vss 1.2e-16
C21_32 cell0_1.g_2 vss 1.2e-16
R21_4 cell0_1.g_9 cell0_1.g_10 1.1
C21_41 cell0_1.g_9 vss 8.95e-16
C21_42 cell0_1.g_10 vss 8.95e-16
R21_5 cell0_1.g_7 cell0_1.g_9 1.57
C21_51 cell0_1.g_7 vss 2.15e-16
C21_52 cell0_1.g_9 vss 2.15e-16
R21_6 cell0_1.g_8 cell0_1.g_3 0.45
C21_61 cell0_1.g_8 vss 5.9e-16
C21_62 cell0_1.g_3 vss 5.9e-16
R21_7 cell0_1.g_7 cell0_1.g_8 2.67
C21_71 cell0_1.g_7 vss 3.65e-16
C21_72 cell0_1.g_8 vss 3.65e-16
R21_8 cell0_1.g_5 cell0_1.g_7 2.06
C21_81 cell0_1.g_5 vss 5.45e-16
C21_82 cell0_1.g_7 vss 5.45e-16
R21_9 cell0_1.g_6 cell0_1.g_4 2.33
C21_91 cell0_1.g_6 vss 6.5e-16
C21_92 cell0_1.g_4 vss 6.5e-16
R21_10 cell0_1.g_5 cell0_1.g_6 2.72
C21_101 cell0_1.g_5 vss 4.5e-16
C21_102 cell0_1.g_6 vss 4.5e-16

R22_1 mbk_sig24_2 mbk_sig24_1 1.8
C22_11 mbk_sig24_2 vss 7.3e-16
C22_12 mbk_sig24_1 vss 7.3e-16

R23_1 mbk_sig11_11 mbk_sig11_1 1.22
C23_11 mbk_sig11_11 vss 9.95e-16
C23_12 mbk_sig11_1 vss 9.95e-16
R23_2 mbk_sig11_9 mbk_sig11_11 2.12
C23_21 mbk_sig11_9 vss 2.75e-16
C23_22 mbk_sig11_11 vss 2.75e-16
R23_3 mbk_sig11_10 mbk_sig11_2 2.18
C23_31 mbk_sig11_10 vss 9.85e-16
C23_32 mbk_sig11_2 vss 9.85e-16
R23_4 mbk_sig11_9 mbk_sig11_10 0.93
C23_41 mbk_sig11_9 vss 8.9e-16
C23_42 mbk_sig11_10 vss 8.9e-16
R23_5 mbk_sig11_5 mbk_sig11_9 1.68
C23_51 mbk_sig11_5 vss 9.55e-16
C23_52 mbk_sig11_9 vss 9.55e-16
R23_6 mbk_sig11_8 mbk_sig11_3 0.09
C23_61 mbk_sig11_8 vss 3.3e-16
C23_62 mbk_sig11_3 vss 3.3e-16
R23_7 mbk_sig11_6 mbk_sig11_8 2.1
C23_71 mbk_sig11_6 vss 7.7e-16
C23_72 mbk_sig11_8 vss 7.7e-16
R23_8 mbk_sig11_7 mbk_sig11_4 1.63
C23_81 mbk_sig11_7 vss 3.55e-16
C23_82 mbk_sig11_4 vss 3.55e-16
R23_9 mbk_sig11_6 mbk_sig11_7 1.92
C23_91 mbk_sig11_6 vss 1.4e-16
C23_92 mbk_sig11_7 vss 1.4e-16
R23_10 mbk_sig11_5 mbk_sig11_6 1.44
C23_101 mbk_sig11_5 vss 2.8e-16
C23_102 mbk_sig11_6 vss 2.8e-16

R24_1 cell0_1.p_17 cell0_1.p_1 0.91
C24_11 cell0_1.p_17 vss 8.45e-16
C24_12 cell0_1.p_1 vss 8.45e-16
R24_2 cell0_1.p_13 cell0_1.p_17 2.93
C24_21 cell0_1.p_13 vss 6.35e-16
C24_22 cell0_1.p_17 vss 6.35e-16
R24_3 cell0_1.p_16 cell0_1.p_2 0.25
C24_31 cell0_1.p_16 vss 7.8e-16
C24_32 cell0_1.p_2 vss 7.8e-16
R24_4 cell0_1.p_14 cell0_1.p_16 0.91
C24_41 cell0_1.p_14 vss 5e-18
C24_42 cell0_1.p_16 vss 5e-18
R24_5 cell0_1.p_15 cell0_1.p_3 2.29
C24_51 cell0_1.p_15 vss 1.15e-16
C24_52 cell0_1.p_3 vss 1.15e-16
R24_6 cell0_1.p_14 cell0_1.p_15 2.24
C24_61 cell0_1.p_14 vss 1.25e-16
C24_62 cell0_1.p_15 vss 1.25e-16
R24_7 cell0_1.p_13 cell0_1.p_14 2.09
C24_71 cell0_1.p_13 vss 3.35e-16
C24_72 cell0_1.p_14 vss 3.35e-16
R24_8 cell0_1.p_11 cell0_1.p_13 1.74
C24_81 cell0_1.p_11 vss 1.7e-16
C24_82 cell0_1.p_13 vss 1.7e-16
R24_9 cell0_1.p_12 cell0_1.p_4 0.19
C24_91 cell0_1.p_12 vss 1.15e-16
C24_92 cell0_1.p_4 vss 1.15e-16
R24_10 cell0_1.p_11 cell0_1.p_12 0.97
C24_101 cell0_1.p_11 vss 1.65e-16
C24_102 cell0_1.p_12 vss 1.65e-16
R24_11 cell0_1.p_7 cell0_1.p_11 2.52
C24_111 cell0_1.p_7 vss 3.8e-16
C24_112 cell0_1.p_11 vss 3.8e-16
R24_12 cell0_1.p_10 cell0_1.p_5 0.31
C24_121 cell0_1.p_10 vss 4.8e-16
C24_122 cell0_1.p_5 vss 4.8e-16
R24_13 cell0_1.p_8 cell0_1.p_10 1.47
C24_131 cell0_1.p_8 vss 9.35e-16
C24_132 cell0_1.p_10 vss 9.35e-16
R24_14 cell0_1.p_9 cell0_1.p_6 1.86
C24_141 cell0_1.p_9 vss 6.1e-16
C24_142 cell0_1.p_6 vss 6.1e-16
R24_15 cell0_1.p_8 cell0_1.p_9 1.47
C24_151 cell0_1.p_8 vss 7e-17
C24_152 cell0_1.p_9 vss 7e-17
R24_16 cell0_1.p_7 cell0_1.p_8 2.46
C24_161 cell0_1.p_7 vss 1.1e-16
C24_162 cell0_1.p_8 vss 1.1e-16

R25_1 cell0_2.p_20 cell0_2.p_1 2.11
C25_11 cell0_2.p_20 vss 9.75e-16
C25_12 cell0_2.p_1 vss 9.75e-16
R25_2 cell0_2.p_16 cell0_2.p_20 1.62
C25_21 cell0_2.p_16 vss 3.25e-16
C25_22 cell0_2.p_20 vss 3.25e-16