*SPEF "IEEE 1481-1998"
*DESIGN "top"
*DATE "Tue Jan  6 19:48:54 2004"
*VENDOR "AVERTEC"
*PROGRAM "spef_driver"
*VERSION "1.0"
*DESIGN_FLOW "EXTERNAL LOADS"  "EXTERNAL_SLEWS" 
*DIVIDER .
*DELIMITER .
*BUS_DELIMITER <>
*T_UNIT 1 NS
*C_UNIT 1 PF
*R_UNIT 1 OHM
*L_UNIT 1 HENRY

*NAME_MAP
*1 a<0>
*2 a<1>
*3 a<2>
*4 a<3>
*5 b<0>
*6 b<1>
*7 b<2>
*8 b<3>
*9 c<0>
*10 c<1>
*11 c<2>
*12 c<3>
*13 d<0>
*14 d<1>
*15 d<2>
*16 d<3>
*17 i<0>
*18 i<1>
*19 i<2>
*20 i<3>
*21 i<4>
*22 i<5>
*23 i<6>
*24 i<7>
*25 i<8>
*26 q0
*27 q3
*28 fonc
*29 test
*30 scin
*31 r0
*32 r3
*33 ck
*34 noe
*35 cin
*36 cout_cpu
*37 cout_addit
*38 sign
*39 np
*40 ng
*41 zero
*42 ovr
*43 f0
*44 f3
*45 scout
*46 decald
*47 decalg
*48 decaldr
*49 decalgr
*50 s0
*51 s3
*52 dout<3>
*53 dout<2>
*54 dout<1>
*55 dout<0>
*56 oe
*57 write
*58 en
*59 adr<6>
*60 adr<5>
*61 adr<4>
*62 adr<3>
*63 adr<2>
*64 adr<1>
*65 adr<0>
*66 y<3>
*67 y<2>
*68 y<1>
*69 y<0>

*PORTS
adr<0> X
adr<1> X
adr<2> X
adr<3> X
adr<4> X
adr<5> X
adr<6> X
en X
write X
oe X
dout<0> X
dout<1> X
dout<2> X
dout<3> X
s3 X
s0 X
decalgr X
decaldr X
decalg X
decald X
scout X
f3 X
f0 X
ovr X
zero X
ng X
np X
sign X
cout_addit X
cout_cpu X
cin X
vss X
vdd X
noe X
ck X
r3 X
r0 X
scin X
test X
fonc X
q3 X
q0 X
i<8> X
i<7> X
i<6> X
i<5> X
i<4> X
i<3> X
i<2> X
i<1> X
i<0> X
d<3> X
d<2> X
d<1> X
d<0> X
c<3> X
c<2> X
c<1> X
c<0> X
b<3> X
b<2> X
b<1> X
b<0> X
a<3> X
a<2> X
a<1> X
a<0> X

*D_NET *1 0

*CONN
*I cpu2901.a<0> I *D cpu
*P a<0> I
*CAP
1 *63.4 a<0> 0.0005
2 cpu2901.r3 cpu2901.a<0> 0.0005
3 cpu2901.a<0> cpu2901.i<6> 0.0005
4 *1.3 0.00025
5 cpu2901.a<0> 0.00025
6 a<0> 0.00025
7 *1.3 0.00025
*RES
1 *1.3 cpu2901.a<0> 1
2 a<0> *1.3 1

*END

*D_NET *2 0

*CONN
*I cpu2901.a<1> I *D cpu
*P a<1> I
*CAP
1 c<2> *2.4 0.0005
2 *2.4 fonc 0.0005
3 cpu2901.a<1> cpu2901.scout 0.0005
4 *2.4 0.00025
5 cpu2901.a<1> 0.00025
6 *2.3 0.00025
7 *2.4 0.00025
8 a<1> 0.00025
9 *2.3 0.00025
*RES
1 *2.4 cpu2901.a<1> 1
2 *2.3 *2.4 1
3 a<1> *2.3 1

*END

*D_NET *3 0

*CONN
*I cpu2901.a<2> I *D cpu
*P a<2> I
*CAP
1 cin *3.3 0.0005
2 a<2> a<3> 0.0005
3 cpu2901.a<2> cpu2901.r0 0.0005
4 *3.3 0.00025
5 cpu2901.a<2> 0.00025
6 a<2> 0.00025
7 *3.3 0.00025
*RES
1 *3.3 cpu2901.a<2> 1
2 a<2> *3.3 1

*END

*D_NET *4 0

*CONN
*I cpu2901.a<3> I *D cpu
*P a<3> I
*CAP
1 a<3> *55.5 0.0005
2 cpu2901.a<3> *6.3 0.0005
3 a<2> a<3> 0.0005
4 *4.3 0.00025
5 cpu2901.a<3> 0.00025
6 a<3> 0.00025
7 *4.3 0.00025
*RES
1 *4.3 cpu2901.a<3> 1
2 a<3> *4.3 1

*END

*D_NET *5 0

*CONN
*I cpu2901.b<0> I *D cpu
*P b<0> I
*CAP
1 *55.6 *5.3 0.0005
2 *5.3 *66.3 0.0005
3 b<0> ram4x128.write 0.0005
4 *5.3 0.00025
5 cpu2901.b<0> 0.00025
6 b<0> 0.00025
7 *5.3 0.00025
*RES
1 *5.3 cpu2901.b<0> 1
2 b<0> *5.3 1

*END

*D_NET *6 0

*CONN
*I cpu2901.b<1> I *D cpu
*P b<1> I
*CAP
1 adder.s_3 b<1> 0.0005
2 *26.4 b<1> 0.0005
3 *16.3 cpu2901.b<1> 0.0005
4 b<1> cpu2901.decalg 0.0005
5 cpu2901.a<3> *6.3 0.0005
6 *6.4 0.00025
7 cpu2901.b<1> 0.00025
8 *6.3 0.00025
9 *6.4 0.00025
10 b<1> 0.00025
11 *6.3 0.00025
*RES
1 *6.4 cpu2901.b<1> 1
2 *6.3 *6.4 1
3 b<1> *6.3 1

*END

*D_NET *7 0

*CONN
*I cpu2901.b<2> I *D cpu
*P b<2> I
*CAP
1 ram4x128.dout<2> *7.3 0.0005
2 *15.3 cpu2901.b<2> 0.0005
3 cpu2901.b<2> adder.s_2 0.0005
4 *7.3 0.00025
5 cpu2901.b<2> 0.00025
6 b<2> 0.00025
7 *7.3 0.00025
*RES
1 *7.3 cpu2901.b<2> 1
2 b<2> *7.3 1

*END

*D_NET *8 0

*CONN
*I cpu2901.b<3> I *D cpu
*P b<3> I
*CAP
1 *53.4 *8.3 0.0005
2 *42.4 cpu2901.b<3> 0.0005
3 b<3> cpu2901.noe 0.0005
4 *8.3 0.00025
5 cpu2901.b<3> 0.00025
6 b<3> 0.00025
7 *8.3 0.00025
*RES
1 *8.3 cpu2901.b<3> 1
2 b<3> *8.3 1

*END

*D_NET *9 0

*CONN
*I adder.b_0 I *D adder
*P c<0> I
*CAP
1 *29.4 *9.3 0.0005
2 cpu2901.q0 *9.4 0.0005
3 *9.4 0.00025
4 adder.b_0 0.00025
5 *9.3 0.00025
6 *9.4 0.00025
7 c<0> 0.00025
8 *9.3 0.00025
*RES
1 *9.4 adder.b_0 1
2 *9.3 *9.4 1
3 c<0> *9.3 1

*END

*D_NET *10 0

*CONN
*I adder.b_1 I *D adder
*P c<1> I
*CAP
1 adder.a_0 *10.3 0.0005
2 cpu2901.fonc adder.b_1 0.0005
3 *27.4 c<1> 0.0005
4 *10.4 cpu2901.d<1> 0.0005
5 c<1> *12.3 0.0005
6 *10.4 0.00025
7 adder.b_1 0.00025
8 *10.3 0.00025
9 *10.4 0.00025
10 c<1> 0.00025
11 *10.3 0.00025
*RES
1 *10.4 adder.b_1 1
2 *10.3 *10.4 1
3 c<1> *10.3 1

*END

*D_NET *11 0

*CONN
*I adder.b_2 I *D adder
*P c<2> I
*CAP
1 *21.3 c<2> 0.0005
2 c<2> *2.4 0.0005
3 c<2> 0.00025
4 adder.b_2 0.00025
*RES
1 c<2> adder.b_2 1

*END

*D_NET *12 0

*CONN
*I adder.b_3 I *D adder
*P c<3> I
*CAP
1 decald *12.3 0.0005
2 *12.4 i<7> 0.0005
3 c<3> decaldr 0.0005
4 adder.b_3 *64.3 0.0005
5 c<1> *12.3 0.0005
6 *12.4 0.00025
7 adder.b_3 0.00025
8 *12.3 0.00025
9 *12.4 0.00025
10 c<3> 0.00025
11 *12.3 0.00025
*RES
1 *12.4 adder.b_3 1
2 *12.3 *12.4 1
3 c<3> *12.3 1

*END

*D_NET *13 0

*CONN
*I cpu2901.d<0> I *D cpu
*P d<0> I
*CAP
1 adder.a_2 *13.4 0.0005
2 *13.3 adder.a_0 0.0005
3 d<0> *43.3 0.0005
4 *13.4 0.00025
5 cpu2901.d<0> 0.00025
6 *13.3 0.00025
7 *13.4 0.00025
8 d<0> 0.00025
9 *13.3 0.00025
*RES
1 *13.4 cpu2901.d<0> 1
2 *13.3 *13.4 1
3 d<0> *13.3 1

*END

*D_NET *14 0

*CONN
*I cpu2901.d<1> I *D cpu
*P d<1> I
*CAP
1 ck d<1> 0.0005
2 *10.4 cpu2901.d<1> 0.0005
3 d<1> 0.00025
4 cpu2901.d<1> 0.00025
*RES
1 d<1> cpu2901.d<1> 1

*END

*D_NET *15 0

*CONN
*I cpu2901.d<2> I *D cpu
*P d<2> I
*CAP
1 *15.3 cpu2901.b<2> 0.0005
2 d<2> s3 0.0005
3 cpu2901.d<2> *55.4 0.0005
4 *15.3 0.00025
5 cpu2901.d<2> 0.00025
6 d<2> 0.00025
7 *15.3 0.00025
*RES
1 *15.3 cpu2901.d<2> 1
2 d<2> *15.3 1

*END

*D_NET *16 0

*CONN
*I cpu2901.d<3> I *D cpu
*P d<3> I
*CAP
1 *52.4 cpu2901.d<3> 0.0005
2 *16.3 cpu2901.b<1> 0.0005
3 cpu2901.d<3> write 0.0005
4 *16.4 0.00025
5 cpu2901.d<3> 0.00025
6 *16.3 0.00025
7 *16.4 0.00025
8 d<3> 0.00025
9 *16.3 0.00025
*RES
1 *16.4 cpu2901.d<3> 1
2 *16.3 *16.4 1
3 d<3> *16.3 1

*END

*D_NET *17 0

*CONN
*I cpu2901.i<0> I *D cpu
*P i<0> I
*CAP
1 cpu2901.i<0> *43.3 0.0005
2 i<0> 0.00025
3 cpu2901.i<0> 0.00025
*RES
1 i<0> cpu2901.i<0> 1

*END

*D_NET *18 0

*CONN
*I cpu2901.i<1> I *D cpu
*P i<1> I
*CAP
1 *60.3 i<1> 0.0005
2 adr<5> cpu2901.i<1> 0.0005
3 i<1> *19.3 0.0005
4 cpu2901.i<1> cpu2901.decaldr 0.0005
5 i<1> 0.00025
6 cpu2901.i<1> 0.00025
*RES
1 i<1> cpu2901.i<1> 1

*END

*D_NET *19 0

*CONN
*I cpu2901.i<2> I *D cpu
*P i<2> I
*CAP
1 adder.a_1 cpu2901.i<2> 0.0005
2 *46.3 cpu2901.i<2> 0.0005
3 i<2> oe 0.0005
4 i<1> *19.3 0.0005
5 *19.3 0.00025
6 cpu2901.i<2> 0.00025
7 i<2> 0.00025
8 *19.3 0.00025
*RES
1 *19.3 cpu2901.i<2> 1
2 i<2> *19.3 1

*END

*D_NET *20 0

*CONN
*I cpu2901.i<3> I *D cpu
*P i<3> I
*CAP
1 f0 *20.3 0.0005
2 *20.4 *41.4 0.0005
3 i<3> ram4x128.write 0.0005
4 *20.4 0.00025
5 cpu2901.i<3> 0.00025
6 *20.3 0.00025
7 *20.4 0.00025
8 i<3> 0.00025
9 *20.3 0.00025
*RES
1 *20.4 cpu2901.i<3> 1
2 *20.3 *20.4 1
3 i<3> *20.3 1

*END

*D_NET *21 0

*CONN
*I cpu2901.i<4> I *D cpu
*P i<4> I
*CAP
1 ram4x128.adr<1> cpu2901.i<4> 0.0005
2 r0 i<4> 0.0005
3 *21.4 ram4x128.adr<4> 0.0005
4 *21.3 c<2> 0.0005
5 i<4> cout_cpu 0.0005
6 *21.4 0.00025
7 cpu2901.i<4> 0.00025
8 *21.3 0.00025
9 *21.4 0.00025
10 i<4> 0.00025
11 *21.3 0.00025
*RES
1 *21.4 cpu2901.i<4> 1
2 *21.3 *21.4 1
3 i<4> *21.3 1

*END

*D_NET *22 0

*CONN
*I cpu2901.i<5> I *D cpu
*P i<5> I
*CAP
1 *55.5 i<5> 0.0005
2 fonc cpu2901.i<5> 0.0005
3 cpu2901.i<5> cpu2901.s3 0.0005
4 i<5> 0.00025
5 cpu2901.i<5> 0.00025
*RES
1 i<5> cpu2901.i<5> 1

*END

*D_NET *23 0

*CONN
*I cpu2901.i<6> I *D cpu
*P i<6> I
*CAP
1 cpu2901.i<6> test 0.0005
2 cpu2901.a<0> cpu2901.i<6> 0.0005
3 i<6> 0.00025
4 cpu2901.i<6> 0.00025
*RES
1 i<6> cpu2901.i<6> 1

*END

*D_NET *24 0

*CONN
*I cpu2901.i<7> I *D cpu
*P i<7> I
*CAP
1 cpu2901.scout cpu2901.i<7> 0.0005
2 *12.4 i<7> 0.0005
3 *24.3 0.00025
4 cpu2901.i<7> 0.00025
5 i<7> 0.00025
6 *24.3 0.00025
*RES
1 *24.3 cpu2901.i<7> 1
2 i<7> *24.3 1

*END

*D_NET *25 0

*CONN
*I cpu2901.i<8> I *D cpu
*P i<8> I
*CAP
1 adr<3> i<8> 0.0005
2 q0 cpu2901.i<8> 0.0005
3 i<8> adder.s_0 0.0005
4 i<8> 0.00025
5 cpu2901.i<8> 0.00025
*RES
1 i<8> cpu2901.i<8> 1

*END

*D_NET *26 0

*CONN
*I cpu2901.q0 I *D cpu
*P q0 I
*CAP
1 write cpu2901.q0 0.0005
2 *26.4 b<1> 0.0005
3 q0 cpu2901.i<8> 0.0005
4 cpu2901.q0 *9.4 0.0005
5 *26.4 0.00025
6 cpu2901.q0 0.00025
7 *26.3 0.00025
8 *26.4 0.00025
9 q0 0.00025
10 *26.3 0.00025
*RES
1 *26.4 cpu2901.q0 1
2 *26.3 *26.4 1
3 q0 *26.3 1

*END

*D_NET *27 0

*CONN
*I cpu2901.q3 I *D cpu
*P q3 I
*CAP
1 adr<1> cpu2901.q3 0.0005
2 *38.3 *27.3 0.0005
3 *27.4 c<1> 0.0005
4 cpu2901.q3 *33.5 0.0005
5 *27.4 0.00025
6 cpu2901.q3 0.00025
7 *27.3 0.00025
8 *27.4 0.00025
9 q3 0.00025
10 *27.3 0.00025
*RES
1 *27.4 cpu2901.q3 1
2 *27.3 *27.4 1
3 q3 *27.3 1

*END

*D_NET *28 0

*CONN
*I cpu2901.fonc I *D cpu
*P fonc I
*CAP
1 fonc cpu2901.i<5> 0.0005
2 cpu2901.fonc adder.b_1 0.0005
3 *2.4 fonc 0.0005
4 fonc 0.00025
5 cpu2901.fonc 0.00025
*RES
1 fonc cpu2901.fonc 1

*END

*D_NET *29 0

*CONN
*I cpu2901.test I *D cpu
*P test I
*CAP
1 ram4x128.adr<3> cpu2901.test 0.0005
2 *29.4 *9.3 0.0005
3 test adr<0> 0.0005
4 cpu2901.test cpu2901.oe 0.0005
5 cpu2901.i<6> test 0.0005
6 *29.4 0.00025
7 cpu2901.test 0.00025
8 *29.3 0.00025
9 *29.4 0.00025
10 test 0.00025
11 *29.3 0.00025
*RES
1 *29.4 cpu2901.test 1
2 *29.3 *29.4 1
3 test *29.3 1

*END

*D_NET *30 0

*CONN
*I cpu2901.scin I *D cpu
*P scin I
*CAP
1 dout<3> scin 0.0005
2 cout_cpu scin 0.0005
3 scin cpu2901.ovr 0.0005
4 scin 0.00025
5 cpu2901.scin 0.00025
*RES
1 scin cpu2901.scin 1

*END

*D_NET *31 0

*CONN
*I cpu2901.r0 I *D cpu
*P r0 I
*CAP
1 r0 i<4> 0.0005
2 cpu2901.a<2> cpu2901.r0 0.0005
3 r0 0.00025
4 cpu2901.r0 0.00025
*RES
1 r0 cpu2901.r0 1

*END

*D_NET *32 0

*CONN
*I cpu2901.r3 I *D cpu
*P r3 I
*CAP
1 cpu2901.r3 cpu2901.a<0> 0.0005
2 r3 0.00025
3 cpu2901.r3 0.00025
*RES
1 r3 cpu2901.r3 1

*END

*D_NET *33 0

*CONN
*I cpu2901.ck I *D cpu
*I ram4x128.ck I *D ram4x128
*P ck I
*CAP
1 *33.5 oe 0.0005
2 ck d<1> 0.0005
3 cpu2901.ck cpu2901.f0 0.0005
4 cpu2901.q3 *33.5 0.0005
5 *33.6 0.00025
6 cpu2901.ck 0.00025
7 *33.4 0.00025
8 *33.6 0.00025
9 *33.5 0.00025
10 ram4x128.ck 0.00025
11 *33.4 0.00025
12 *33.5 0.00025
13 ck 0.00025
14 *33.4 0.00025
*RES
1 *33.6 cpu2901.ck 1
2 *33.4 *33.6 1
3 *33.5 ram4x128.ck 1
4 *33.4 *33.5 1
5 ck *33.4 1

*END

*D_NET *34 0

*CONN
*I cpu2901.noe I *D cpu
*P noe I
*CAP
1 b<3> cpu2901.noe 0.0005
2 *34.3 0.00025
3 cpu2901.noe 0.00025
4 noe 0.00025
5 *34.3 0.00025
*RES
1 *34.3 cpu2901.noe 1
2 noe *34.3 1

*END

*D_NET *35 0

*CONN
*I cpu2901.cin I *D cpu
*P cin I
*CAP
1 cin *3.3 0.0005
2 *35.3 0.00025
3 cpu2901.cin 0.00025
4 cin 0.00025
5 *35.3 0.00025
*RES
1 *35.3 cpu2901.cin 1
2 cin *35.3 1

*END

*D_NET *36 0

*CONN
*I cpu2901.cout I *D cpu
*P cout_cpu I
*CAP
1 cpu2901.f3 cout_cpu 0.0005
2 cout_cpu scin 0.0005
3 cpu2901.cout *43.4 0.0005
4 i<4> cout_cpu 0.0005
5 cout_cpu 0.00025
6 cpu2901.cout 0.00025
*RES
1 cout_cpu cpu2901.cout 1

*END

*D_NET *37 0

*CONN
*I adder.cout I *D adder
*P cout_addit I
*CAP
1 ng cout_addit 0.0005
2 adder.cout *62.3 0.0005
3 *37.3 0.00025
4 adder.cout 0.00025
5 cout_addit 0.00025
6 *37.3 0.00025
*RES
1 *37.3 adder.cout 1
2 cout_addit *37.3 1

*END

*D_NET *38 0

*CONN
*I cpu2901.sign I *D cpu
*P sign I
*CAP
1 *38.4 write 0.0005
2 *38.3 *27.3 0.0005
3 *38.4 0.00025
4 cpu2901.sign 0.00025
5 *38.3 0.00025
6 *38.4 0.00025
7 sign 0.00025
8 *38.3 0.00025
*RES
1 *38.4 cpu2901.sign 1
2 *38.3 *38.4 1
3 sign *38.3 1

*END

*D_NET *39 0

*CONN
*I cpu2901.np I *D cpu
*P np I
*CAP
1 decalg np 0.0005
2 *39.3 0.00025
3 cpu2901.np 0.00025
4 np 0.00025
5 *39.3 0.00025
*RES
1 *39.3 cpu2901.np 1
2 np *39.3 1

*END

*D_NET *40 0

*CONN
*I cpu2901.ng I *D cpu
*P ng I
*CAP
1 en cpu2901.ng 0.0005
2 cpu2901.s0 *40.4 0.0005
3 *40.3 *47.3 0.0005
4 ng cout_addit 0.0005
5 cpu2901.ng dout<1> 0.0005
6 *40.4 0.00025
7 cpu2901.ng 0.00025
8 *40.3 0.00025
9 *40.4 0.00025
10 ng 0.00025
11 *40.3 0.00025
*RES
1 *40.4 cpu2901.ng 1
2 *40.3 *40.4 1
3 ng *40.3 1

*END

*D_NET *41 0

*CONN
*I cpu2901.zero I *D cpu
*P zero I
*CAP
1 cpu2901.y<0> zero 0.0005
2 s3 cpu2901.zero 0.0005
3 *46.4 *41.3 0.0005
4 *41.4 *48.3 0.0005
5 *20.4 *41.4 0.0005
6 *41.4 0.00025
7 cpu2901.zero 0.00025
8 *41.3 0.00025
9 *41.4 0.00025
10 zero 0.00025
11 *41.3 0.00025
*RES
1 *41.4 cpu2901.zero 1
2 *41.3 *41.4 1
3 zero *41.3 1

*END

*D_NET *42 0

*CONN
*I cpu2901.ovr I *D cpu
*P ovr I
*CAP
1 *42.4 cpu2901.b<3> 0.0005
2 ovr cpu2901.scout 0.0005
3 scin cpu2901.ovr 0.0005
4 *42.4 0.00025
5 cpu2901.ovr 0.00025
6 *42.3 0.00025
7 *42.4 0.00025
8 ovr 0.00025
9 *42.3 0.00025
*RES
1 *42.4 cpu2901.ovr 1
2 *42.3 *42.4 1
3 ovr *42.3 1

*END

*D_NET *43 0

*CONN
*I cpu2901.f0 I *D cpu
*P f0 I
*CAP
1 *43.4 *46.3 0.0005
2 *43.3 dout<0> 0.0005
3 f0 *20.3 0.0005
4 cpu2901.cout *43.4 0.0005
5 cpu2901.ck cpu2901.f0 0.0005
6 cpu2901.i<0> *43.3 0.0005
7 d<0> *43.3 0.0005
8 *43.4 0.00025
9 cpu2901.f0 0.00025
10 *43.3 0.00025
11 *43.4 0.00025
12 f0 0.00025
13 *43.3 0.00025
*RES
1 *43.4 cpu2901.f0 1
2 *43.3 *43.4 1
3 f0 *43.3 1

*END

*D_NET *44 0

*CONN
*I cpu2901.f3 I *D cpu
*P f3 I
*CAP
1 cpu2901.f3 cout_cpu 0.0005
2 f3 0.00025
3 cpu2901.f3 0.00025
*RES
1 f3 cpu2901.f3 1

*END

*D_NET *45 0

*CONN
*I cpu2901.scout I *D cpu
*P scout I
*CAP
1 cpu2901.y<2> cpu2901.scout 0.0005
2 *47.3 cpu2901.scout 0.0005
3 cpu2901.scout cpu2901.i<7> 0.0005
4 ovr cpu2901.scout 0.0005
5 cpu2901.a<1> cpu2901.scout 0.0005
6 *45.3 0.00025
7 cpu2901.scout 0.00025
8 scout 0.00025
9 *45.3 0.00025
*RES
1 *45.3 cpu2901.scout 1
2 scout *45.3 1

*END

*D_NET *46 0

*CONN
*I cpu2901.decald I *D cpu
*P decald I
*CAP
1 *55.4 *46.4 0.0005
2 adder.s_1 *46.3 0.0005
3 *46.4 *41.3 0.0005
4 *46.3 cpu2901.i<2> 0.0005
5 decald *12.3 0.0005
6 *43.4 *46.3 0.0005
7 *46.4 0.00025
8 cpu2901.decald 0.00025
9 *46.3 0.00025
10 *46.4 0.00025
11 decald 0.00025
12 *46.3 0.00025
*RES
1 *46.4 cpu2901.decald 1
2 *46.3 *46.4 1
3 decald *46.3 1

*END

*D_NET *47 0

*CONN
*I cpu2901.decalg I *D cpu
*P decalg I
*CAP
1 *64.4 *47.3 0.0005
2 *47.3 cpu2901.scout 0.0005
3 decalg np 0.0005
4 cpu2901.decalg decalgr 0.0005
5 *40.3 *47.3 0.0005
6 b<1> cpu2901.decalg 0.0005
7 *47.3 0.00025
8 cpu2901.decalg 0.00025
9 decalg 0.00025
10 *47.3 0.00025
*RES
1 *47.3 cpu2901.decalg 1
2 decalg *47.3 1

*END

*D_NET *48 0

*CONN
*I cpu2901.decaldr I *D cpu
*P decaldr I
*CAP
1 *63.3 *48.3 0.0005
2 decaldr *62.3 0.0005
3 *41.4 *48.3 0.0005
4 cpu2901.i<1> cpu2901.decaldr 0.0005
5 c<3> decaldr 0.0005
6 *48.3 0.00025
7 cpu2901.decaldr 0.00025
8 decaldr 0.00025
9 *48.3 0.00025
*RES
1 *48.3 cpu2901.decaldr 1
2 decaldr *48.3 1

*END

*D_NET *49 0

*CONN
*I cpu2901.decalgr I *D cpu
*P decalgr I
*CAP
1 cpu2901.decalg decalgr 0.0005
2 decalgr 0.00025
3 cpu2901.decalgr 0.00025
*RES
1 decalgr cpu2901.decalgr 1

*END

*D_NET *50 0

*CONN
*I cpu2901.s0 I *D cpu
*P s0 I
*CAP
1 adder.a_3 s0 0.0005
2 cpu2901.s0 *40.4 0.0005
3 s0 0.00025
4 cpu2901.s0 0.00025
*RES
1 s0 cpu2901.s0 1

*END

*D_NET *51 0

*CONN
*I cpu2901.s3 I *D cpu
*P s3 I
*CAP
1 ram4x128.dout<0> s3 0.0005
2 ram4x128.dout<1> cpu2901.s3 0.0005
3 s3 cpu2901.zero 0.0005
4 cpu2901.i<5> cpu2901.s3 0.0005
5 d<2> s3 0.0005
6 s3 0.00025
7 cpu2901.s3 0.00025
*RES
1 s3 cpu2901.s3 1

*END

*D_NET *52 0

*CONN
*I adder.s_3 I *D adder
*I ram4x128.dout<3> I *D ram4x128
*P dout<3> I
*CAP
1 *52.4 cpu2901.d<3> 0.0005
2 dout<3> scin 0.0005
3 adder.s_3 b<1> 0.0005
4 *52.6 0.00025
5 adder.s_3 0.00025
6 *52.5 0.00025
7 *52.6 0.00025
8 dout<3> 0.00025
9 *52.5 0.00025
10 *52.4 0.00025
11 ram4x128.dout<3> 0.00025
12 dout<3> 0.00025
13 *52.4 0.00025
*RES
1 *52.6 adder.s_3 1
2 *52.5 *52.6 1
3 dout<3> *52.5 1
4 *52.4 ram4x128.dout<3> 1
5 dout<3> *52.4 1

*END

*D_NET *53 0

*CONN
*I adder.s_2 I *D adder
*I ram4x128.dout<2> I *D ram4x128
*P dout<2> I
*CAP
1 *53.6 ram4x128.write 0.0005
2 *53.4 *8.3 0.0005
3 ram4x128.dout<2> *7.3 0.0005
4 cpu2901.b<2> adder.s_2 0.0005
5 *53.7 0.00025
6 adder.s_2 0.00025
7 *53.5 0.00025
8 *53.7 0.00025
9 *53.6 0.00025
10 ram4x128.dout<2> 0.00025
11 *53.5 0.00025
12 *53.6 0.00025
13 *53.4 0.00025
14 *53.5 0.00025
15 dout<2> 0.00025
16 *53.4 0.00025
*RES
1 *53.7 adder.s_2 1
2 *53.5 *53.7 1
3 *53.6 ram4x128.dout<2> 1
4 *53.5 *53.6 1
5 *53.4 *53.5 1
6 dout<2> *53.4 1

*END

*D_NET *54 0

*CONN
*I adder.s_1 I *D adder
*I ram4x128.dout<1> I *D ram4x128
*P dout<1> I
*CAP
1 dout<1> *66.3 0.0005
2 ram4x128.dout<1> cpu2901.s3 0.0005
3 adder.s_1 *46.3 0.0005
4 cpu2901.ng dout<1> 0.0005
5 *54.7 0.00025
6 adder.s_1 0.00025
7 dout<1> 0.00025
8 *54.7 0.00025
9 *54.6 0.00025
10 ram4x128.dout<1> 0.00025
11 *54.5 0.00025
12 *54.6 0.00025
13 *54.4 0.00025
14 *54.5 0.00025
15 dout<1> 0.00025
16 *54.4 0.00025
*RES
1 *54.7 adder.s_1 1
2 dout<1> *54.7 1
3 *54.6 ram4x128.dout<1> 1
4 *54.5 *54.6 1
5 *54.4 *54.5 1
6 dout<1> *54.4 1

*END

*D_NET *55 0

*CONN
*I adder.s_0 I *D adder
*I ram4x128.dout<0> I *D ram4x128
*P dout<0> I
*CAP
1 *55.6 *5.3 0.0005
2 *55.5 i<5> 0.0005
3 *55.4 *46.4 0.0005
4 dout<0> adr<1> 0.0005
5 ram4x128.dout<0> s3 0.0005
6 adder.s_0 cpu2901.y<0> 0.0005
7 *43.3 dout<0> 0.0005
8 i<8> adder.s_0 0.0005
9 cpu2901.d<2> *55.4 0.0005
10 a<3> *55.5 0.0005
11 *55.7 0.00025
12 adder.s_0 0.00025
13 *55.6 0.00025
14 *55.7 0.00025
15 dout<0> 0.00025
16 *55.6 0.00025
17 *55.5 0.00025
18 ram4x128.dout<0> 0.00025
19 *55.4 0.00025
20 *55.5 0.00025
21 dout<0> 0.00025
22 *55.4 0.00025
*RES
1 *55.7 adder.s_0 1
2 *55.6 *55.7 1
3 dout<0> *55.6 1
4 *55.5 ram4x128.dout<0> 1
5 *55.4 *55.5 1
6 dout<0> *55.4 1

*END

*D_NET *56 0

*CONN
*I cpu2901.oe I *D cpu
*P oe I
*CAP
1 *33.5 oe 0.0005
2 cpu2901.test cpu2901.oe 0.0005
3 i<2> oe 0.0005
4 oe 0.00025
5 cpu2901.oe 0.00025
*RES
1 oe cpu2901.oe 1

*END

*D_NET *57 0

*CONN
*I ram4x128.write I *D ram4x128
*P write I
*CAP
1 write cpu2901.q0 0.0005
2 *53.6 ram4x128.write 0.0005
3 *38.4 write 0.0005
4 i<3> ram4x128.write 0.0005
5 cpu2901.d<3> write 0.0005
6 b<0> ram4x128.write 0.0005
7 write 0.00025
8 ram4x128.write 0.00025
*RES
1 write ram4x128.write 1

*END

*D_NET *58 0

*CONN
*I ram4x128.en I *D ram4x128
*P en I
*CAP
1 en cpu2901.ng 0.0005
2 *58.3 0.00025
3 ram4x128.en 0.00025
4 en 0.00025
5 *58.3 0.00025
*RES
1 *58.3 ram4x128.en 1
2 en *58.3 1

*END

*D_NET *59 0

*CONN
*I ram4x128.adr<6> I *D ram4x128
*P adr<6> I
*CAP
1 *59.3 adr<0> 0.0005
2 *59.3 0.00025
3 ram4x128.adr<6> 0.00025
4 adr<6> 0.00025
5 *59.3 0.00025
*RES
1 *59.3 ram4x128.adr<6> 1
2 adr<6> *59.3 1

*END

*D_NET *60 0

*CONN
*I ram4x128.adr<5> I *D ram4x128
*P adr<5> I
*CAP
1 ram4x128.adr<4> *60.4 0.0005
2 *60.3 i<1> 0.0005
3 adr<5> cpu2901.i<1> 0.0005
4 *60.4 0.00025
5 ram4x128.adr<5> 0.00025
6 *60.3 0.00025
7 *60.4 0.00025
8 adr<5> 0.00025
9 *60.3 0.00025
*RES
1 *60.4 ram4x128.adr<5> 1
2 *60.3 *60.4 1
3 adr<5> *60.3 1

*END

*D_NET *61 0

*CONN
*I ram4x128.adr<4> I *D ram4x128
*P adr<4> I
*CAP
1 ram4x128.adr<4> *60.4 0.0005
2 *21.4 ram4x128.adr<4> 0.0005
3 *61.3 0.00025
4 ram4x128.adr<4> 0.00025
5 adr<4> 0.00025
6 *61.3 0.00025
*RES
1 *61.3 ram4x128.adr<4> 1
2 adr<4> *61.3 1

*END

*D_NET *62 0

*CONN
*I ram4x128.adr<3> I *D ram4x128
*P adr<3> I
*CAP
1 ram4x128.adr<2> ram4x128.adr<3> 0.0005
2 adr<3> i<8> 0.0005
3 ram4x128.adr<3> cpu2901.test 0.0005
4 decaldr *62.3 0.0005
5 adder.cout *62.3 0.0005
6 *62.4 0.00025
7 ram4x128.adr<3> 0.00025
8 *62.3 0.00025
9 *62.4 0.00025
10 adr<3> 0.00025
11 *62.3 0.00025
*RES
1 *62.4 ram4x128.adr<3> 1
2 *62.3 *62.4 1
3 adr<3> *62.3 1

*END

*D_NET *63 0

*CONN
*I ram4x128.adr<2> I *D ram4x128
*P adr<2> I
*CAP
1 *63.4 a<0> 0.0005
2 *63.3 *48.3 0.0005
3 ram4x128.adr<2> ram4x128.adr<3> 0.0005
4 *63.4 0.00025
5 ram4x128.adr<2> 0.00025
6 *63.3 0.00025
7 *63.4 0.00025
8 adr<2> 0.00025
9 *63.3 0.00025
*RES
1 *63.4 ram4x128.adr<2> 1
2 *63.3 *63.4 1
3 adr<2> *63.3 1

*END

*D_NET *64 0

*CONN
*I ram4x128.adr<1> I *D ram4x128
*P adr<1> I
*CAP
1 *64.4 *47.3 0.0005
2 adr<1> cpu2901.q3 0.0005
3 ram4x128.adr<1> cpu2901.i<4> 0.0005
4 dout<0> adr<1> 0.0005
5 adder.b_3 *64.3 0.0005
6 *64.4 0.00025
7 ram4x128.adr<1> 0.00025
8 *64.3 0.00025
9 *64.4 0.00025
10 adr<1> 0.00025
11 *64.3 0.00025
*RES
1 *64.4 ram4x128.adr<1> 1
2 *64.3 *64.4 1
3 adr<1> *64.3 1

*END

*D_NET *65 0

*CONN
*I ram4x128.adr<0> I *D ram4x128
*P adr<0> I
*CAP
1 *66.4 ram4x128.adr<0> 0.0005
2 *59.3 adr<0> 0.0005
3 test adr<0> 0.0005
4 adr<0> 0.00025
5 ram4x128.adr<0> 0.00025
*RES
1 adr<0> ram4x128.adr<0> 1

*END

*D_NET *66 0

*CONN
*I cpu2901.y<3> I *D cpu
*I adder.a_3 I *D adder
*CAP
1 *66.4 ram4x128.adr<0> 0.0005
2 adder.a_3 s0 0.0005
3 dout<1> *66.3 0.0005
4 *5.3 *66.3 0.0005
5 *66.4 0.00025
6 cpu2901.y<3> 0.00025
7 *66.3 0.00025
8 *66.4 0.00025
9 adder.a_3 0.00025
10 *66.3 0.00025
*RES
1 *66.4 cpu2901.y<3> 1
2 *66.3 *66.4 1
3 adder.a_3 *66.3 1

*END

*D_NET *67 0

*CONN
*I cpu2901.y<2> I *D cpu
*I adder.a_2 I *D adder
*CAP
1 adder.a_2 *13.4 0.0005
2 cpu2901.y<2> cpu2901.scout 0.0005
3 adder.a_2 0.00025
4 cpu2901.y<2> 0.00025
*RES
1 adder.a_2 cpu2901.y<2> 1

*END

*D_NET *68 0

*CONN
*I cpu2901.y<1> I *D cpu
*I adder.a_1 I *D adder
*CAP
1 adder.a_1 cpu2901.i<2> 0.0005
2 cpu2901.y<1> adder.a_0 0.0005
3 adder.a_1 0.00025
4 cpu2901.y<1> 0.00025
*RES
1 adder.a_1 cpu2901.y<1> 1

*END

*D_NET *69 0

*CONN
*I cpu2901.y<0> I *D cpu
*I adder.a_0 I *D adder
*CAP
1 adder.a_0 *10.3 0.0005
2 cpu2901.y<0> zero 0.0005
3 cpu2901.y<1> adder.a_0 0.0005
4 adder.s_0 cpu2901.y<0> 0.0005
5 *13.3 adder.a_0 0.0005
6 adder.a_0 0.00025
7 cpu2901.y<0> 0.00025
*RES
1 adder.a_0 cpu2901.y<0> 1

*END
