* Spice description of ram8x256
* Spice driver version 700
* Date ( dd/mm/yyyy hh:mm:ss ): 12/09/2002 at 10:13:36

* INTERF write vss vdd en dout[7] dout[6] dout[5] dout[4] dout[3] dout[2] 
* INTERF dout[1] dout[0] ck adr[7] adr[6] adr[5] adr[4] adr[3] adr[2] adr[1] 
* INTERF adr[0] 


.subckt ram8x256 5181 5182 5183 5184 5185 5186 5187 5188 5189 5190 5191 5192 
+ 5193 5194 5195 5196 5197 5198 5199 5200 5201 
* net 1 = mbk_sig201 
* net 2 = mbk_sig211 
* net 3 = mbk_sig219 
* net 4 = mbk_sig220 
* net 5 = mbk_sig132 
* net 6 = mbk_sig157 
* net 7 = mbk_sig192 
* net 8 = mbk_sig1 
* net 9 = mbk_sig3 
* net 10 = mbk_sig204 
* net 11 = mbk_sig212 
* net 12 = mbk_sig222 
* net 13 = mbk_sig221 
* net 14 = mbk_sig135 
* net 15 = mbk_sig159 
* net 16 = mbk_sig193 
* net 17 = mbk_sig9 
* net 18 = mbk_sig10 
* net 19 = mbk_sig205 
* net 20 = mbk_sig213 
* net 21 = mbk_sig223 
* net 22 = mbk_sig224 
* net 23 = mbk_sig136 
* net 24 = mbk_sig161 
* net 25 = mbk_sig194 
* net 26 = mbk_sig13 
* net 27 = mbk_sig15 
* net 28 = mbk_sig206 
* net 29 = mbk_sig214 
* net 30 = mbk_sig226 
* net 31 = mbk_sig225 
* net 32 = mbk_sig139 
* net 33 = mbk_sig163 
* net 34 = mbk_sig195 
* net 35 = mbk_sig19 
* net 36 = mbk_sig21 
* net 37 = mbk_sig5200 
* net 38 = mbk_sig5197 
* net 39 = mbk_sig5084 
* net 40 = mbk_sig5083 
* net 41 = mbk_sig5082 
* net 42 = mbk_sig5081 
* net 43 = mbk_sig5140 
* net 44 = mbk_sig5139 
* net 45 = mbk_sig5177 
* net 46 = mbk_sig5176 
* net 47 = mbk_sig5137 
* net 48 = mbk_sig5077 
* net 49 = mbk_sig5076 
* net 50 = mbk_sig4904 
* net 51 = mbk_sig4905 
* net 52 = mbk_sig4945 
* net 53 = mbk_sig4946 
* net 54 = mbk_sig4985 
* net 55 = mbk_sig4986 
* net 56 = mbk_sig5022 
* net 57 = mbk_sig5021 
* net 58 = mbk_sig4983 
* net 59 = mbk_sig4941 
* net 60 = mbk_sig4943 
* net 61 = mbk_sig4750 
* net 62 = mbk_sig4751 
* net 63 = mbk_sig4791 
* net 64 = mbk_sig4792 
* net 65 = mbk_sig4848 
* net 66 = mbk_sig4847 
* net 67 = mbk_sig4903 
* net 68 = mbk_sig4849 
* net 69 = mbk_sig4845 
* net 70 = mbk_sig4788 
* net 71 = mbk_sig4789 
* net 72 = mbk_sig4617 
* net 73 = mbk_sig4615 
* net 74 = mbk_sig4675 
* net 75 = mbk_sig4616 
* net 76 = mbk_sig4674 
* net 77 = mbk_sig4673 
* net 78 = mbk_sig4711 
* net 79 = mbk_sig4712 
* net 80 = mbk_sig4670 
* net 81 = mbk_sig4671 
* net 82 = mbk_sig4611 
* net 83 = mbk_sig4438 
* net 84 = mbk_sig4481 
* net 85 = mbk_sig4480 
* net 86 = mbk_sig4479 
* net 87 = mbk_sig4521 
* net 88 = mbk_sig4520 
* net 89 = mbk_sig4556 
* net 90 = mbk_sig4557 
* net 91 = mbk_sig4518 
* net 92 = mbk_sig4475 
* net 93 = mbk_sig4477 
* net 94 = mbk_sig4285 
* net 95 = mbk_sig4284 
* net 96 = mbk_sig4326 
* net 97 = mbk_sig4327 
* net 98 = mbk_sig4382 
* net 99 = mbk_sig4381 
* net 100 = mbk_sig4437 
* net 101 = mbk_sig4436 
* net 102 = mbk_sig4379 
* net 103 = mbk_sig4322 
* net 104 = mbk_sig4324 
* net 105 = mbk_sig4133 
* net 106 = mbk_sig4132 
* net 107 = mbk_sig4189 
* net 108 = mbk_sig4188 
* net 109 = mbk_sig4245 
* net 110 = mbk_sig4190 
* net 111 = mbk_sig4246 
* net 112 = mbk_sig4247 
* net 113 = mbk_sig4243 
* net 114 = mbk_sig4186 
* net 115 = mbk_sig4187 
* net 116 = mbk_sig4015 
* net 117 = mbk_sig4016 
* net 118 = mbk_sig4013 
* net 119 = mbk_sig4014 
* net 120 = mbk_sig4055 
* net 121 = mbk_sig4054 
* net 122 = mbk_sig4092 
* net 123 = mbk_sig4091 
* net 124 = mbk_sig4052 
* net 125 = mbk_sig4009 
* net 126 = mbk_sig4011 
* net 127 = mbk_sig3820 
* net 128 = mbk_sig3819 
* net 129 = mbk_sig3861 
* net 130 = mbk_sig3860 
* net 131 = mbk_sig3901 
* net 132 = mbk_sig3900 
* net 133 = mbk_sig3956 
* net 134 = mbk_sig3955 
* net 135 = mbk_sig3898 
* net 136 = mbk_sig3856 
* net 137 = mbk_sig3858 
* net 138 = mbk_sig3666 
* net 139 = mbk_sig3667 
* net 140 = mbk_sig3724 
* net 141 = mbk_sig3723 
* net 142 = mbk_sig3781 
* net 143 = mbk_sig3780 
* net 144 = mbk_sig3779 
* net 145 = mbk_sig3782 
* net 146 = mbk_sig3777 
* net 147 = mbk_sig3721 
* net 148 = mbk_sig3722 
* net 149 = mbk_sig3535 
* net 150 = mbk_sig3534 
* net 151 = mbk_sig3533 
* net 152 = mbk_sig3532 
* net 153 = mbk_sig3589 
* net 154 = mbk_sig3590 
* net 155 = mbk_sig3627 
* net 156 = mbk_sig3626 
* net 157 = mbk_sig3587 
* net 158 = mbk_sig3529 
* net 159 = mbk_sig3528 
* net 160 = mbk_sig3354 
* net 161 = mbk_sig3355 
* net 162 = mbk_sig3395 
* net 163 = mbk_sig3396 
* net 164 = mbk_sig3435 
* net 165 = mbk_sig3436 
* net 166 = mbk_sig3474 
* net 167 = mbk_sig3473 
* net 168 = mbk_sig3433 
* net 169 = mbk_sig3391 
* net 170 = mbk_sig3393 
* net 171 = mbk_sig3200 
* net 172 = mbk_sig3201 
* net 173 = mbk_sig3241 
* net 174 = mbk_sig3242 
* net 175 = mbk_sig3298 
* net 176 = mbk_sig3297 
* net 177 = mbk_sig3353 
* net 178 = mbk_sig3299 
* net 179 = mbk_sig3295 
* net 180 = mbk_sig3238 
* net 181 = mbk_sig3239 
* net 182 = mbk_sig3067 
* net 183 = mbk_sig3065 
* net 184 = mbk_sig3125 
* net 185 = mbk_sig3066 
* net 186 = mbk_sig3124 
* net 187 = mbk_sig3123 
* net 188 = mbk_sig3161 
* net 189 = mbk_sig3162 
* net 190 = mbk_sig3120 
* net 191 = mbk_sig3121 
* net 192 = mbk_sig3061 
* net 193 = mbk_sig2889 
* net 194 = mbk_sig2931 
* net 195 = mbk_sig2929 
* net 196 = mbk_sig2930 
* net 197 = mbk_sig2971 
* net 198 = mbk_sig2970 
* net 199 = mbk_sig3006 
* net 200 = mbk_sig3007 
* net 201 = mbk_sig2968 
* net 202 = mbk_sig2925 
* net 203 = mbk_sig2927 
* net 204 = mbk_sig2735 
* net 205 = mbk_sig2734 
* net 206 = mbk_sig2776 
* net 207 = mbk_sig2777 
* net 208 = mbk_sig2833 
* net 209 = mbk_sig2832 
* net 210 = mbk_sig2888 
* net 211 = mbk_sig2887 
* net 212 = mbk_sig2830 
* net 213 = mbk_sig2772 
* net 214 = mbk_sig2774 
* net 215 = mbk_sig2583 
* net 216 = mbk_sig2582 
* net 217 = mbk_sig2639 
* net 218 = mbk_sig2638 
* net 219 = mbk_sig2695 
* net 220 = mbk_sig2640 
* net 221 = mbk_sig2696 
* net 222 = mbk_sig2697 
* net 223 = mbk_sig2693 
* net 224 = mbk_sig2637 
* net 225 = mbk_sig2636 
* net 226 = mbk_sig2465 
* net 227 = mbk_sig2466 
* net 228 = mbk_sig2464 
* net 229 = mbk_sig2463 
* net 230 = mbk_sig2505 
* net 231 = mbk_sig2504 
* net 232 = mbk_sig2541 
* net 233 = mbk_sig2542 
* net 234 = mbk_sig2502 
* net 235 = mbk_sig2459 
* net 236 = mbk_sig2461 
* net 237 = mbk_sig2270 
* net 238 = mbk_sig2269 
* net 239 = mbk_sig2311 
* net 240 = mbk_sig2310 
* net 241 = mbk_sig2351 
* net 242 = mbk_sig2350 
* net 243 = mbk_sig2406 
* net 244 = mbk_sig2405 
* net 245 = mbk_sig2348 
* net 246 = mbk_sig2306 
* net 247 = mbk_sig2308 
* net 248 = mbk_sig2116 
* net 249 = mbk_sig2117 
* net 250 = mbk_sig2174 
* net 251 = mbk_sig2173 
* net 252 = mbk_sig2231 
* net 253 = mbk_sig2230 
* net 254 = mbk_sig2229 
* net 255 = mbk_sig2232 
* net 256 = mbk_sig2227 
* net 257 = mbk_sig2172 
* net 258 = mbk_sig2171 
* net 259 = mbk_sig1985 
* net 260 = mbk_sig1984 
* net 261 = mbk_sig1983 
* net 262 = mbk_sig1982 
* net 263 = mbk_sig2039 
* net 264 = mbk_sig2040 
* net 265 = mbk_sig2077 
* net 266 = mbk_sig2076 
* net 267 = mbk_sig2037 
* net 268 = mbk_sig1979 
* net 269 = mbk_sig1978 
* net 270 = mbk_sig1804 
* net 271 = mbk_sig1805 
* net 272 = mbk_sig1845 
* net 273 = mbk_sig1846 
* net 274 = mbk_sig1885 
* net 275 = mbk_sig1886 
* net 276 = mbk_sig1924 
* net 277 = mbk_sig1923 
* net 278 = mbk_sig1883 
* net 279 = mbk_sig1841 
* net 280 = mbk_sig1843 
* net 281 = mbk_sig1650 
* net 282 = mbk_sig1651 
* net 283 = mbk_sig1692 
* net 284 = mbk_sig1691 
* net 285 = mbk_sig1748 
* net 286 = mbk_sig1747 
* net 287 = mbk_sig1803 
* net 288 = mbk_sig1749 
* net 289 = mbk_sig1745 
* net 290 = mbk_sig1688 
* net 291 = mbk_sig1689 
* net 292 = mbk_sig1517 
* net 293 = mbk_sig1515 
* net 294 = mbk_sig1575 
* net 295 = mbk_sig1516 
* net 296 = mbk_sig1574 
* net 297 = mbk_sig1573 
* net 298 = mbk_sig1611 
* net 299 = mbk_sig1612 
* net 300 = mbk_sig1570 
* net 301 = mbk_sig1571 
* net 302 = mbk_sig1511 
* net 303 = mbk_sig1339 
* net 304 = mbk_sig1340 
* net 305 = mbk_sig1380 
* net 306 = mbk_sig1381 
* net 307 = mbk_sig1420 
* net 308 = mbk_sig1421 
* net 309 = mbk_sig1456 
* net 310 = mbk_sig1457 
* net 311 = mbk_sig1418 
* net 312 = mbk_sig1376 
* net 313 = mbk_sig1378 
* net 314 = mbk_sig1185 
* net 315 = mbk_sig1184 
* net 316 = mbk_sig1226 
* net 317 = mbk_sig1227 
* net 318 = mbk_sig1283 
* net 319 = mbk_sig1282 
* net 320 = mbk_sig1338 
* net 321 = mbk_sig1337 
* net 322 = mbk_sig1280 
* net 323 = mbk_sig1222 
* net 324 = mbk_sig1224 
* net 325 = mbk_sig1033 
* net 326 = mbk_sig1032 
* net 327 = mbk_sig1089 
* net 328 = mbk_sig1088 
* net 329 = mbk_sig1145 
* net 330 = mbk_sig1090 
* net 331 = mbk_sig1146 
* net 332 = mbk_sig1147 
* net 333 = mbk_sig1143 
* net 334 = mbk_sig1087 
* net 335 = mbk_sig1086 
* net 336 = mbk_sig857 
* net 337 = mbk_sig916 
* net 338 = mbk_sig915 
* net 339 = mbk_sig914 
* net 340 = mbk_sig955 
* net 341 = mbk_sig954 
* net 342 = mbk_sig991 
* net 343 = mbk_sig992 
* net 344 = mbk_sig952 
* net 345 = mbk_sig910 
* net 346 = mbk_sig912 
* net 347 = mbk_sig720 
* net 348 = mbk_sig719 
* net 349 = mbk_sig762 
* net 350 = mbk_sig761 
* net 351 = mbk_sig801 
* net 352 = mbk_sig800 
* net 353 = mbk_sig855 
* net 354 = mbk_sig856 
* net 355 = mbk_sig798 
* net 356 = mbk_sig757 
* net 357 = mbk_sig759 
* net 358 = mbk_sig567 
* net 359 = mbk_sig566 
* net 360 = mbk_sig624 
* net 361 = mbk_sig623 
* net 362 = mbk_sig681 
* net 363 = mbk_sig682 
* net 364 = mbk_sig680 
* net 365 = mbk_sig679 
* net 366 = mbk_sig677 
* net 367 = mbk_sig622 
* net 368 = mbk_sig621 
* net 369 = mbk_sig451 
* net 370 = mbk_sig450 
* net 371 = mbk_sig449 
* net 372 = mbk_sig448 
* net 373 = mbk_sig489 
* net 374 = mbk_sig490 
* net 375 = mbk_sig527 
* net 376 = mbk_sig526 
* net 377 = mbk_sig487 
* net 378 = mbk_sig445 
* net 379 = mbk_sig444 
* net 380 = mbk_sig255 
* net 381 = mbk_sig254 
* net 382 = mbk_sig295 
* net 383 = mbk_sig296 
* net 384 = mbk_sig335 
* net 385 = mbk_sig336 
* net 386 = mbk_sig391 
* net 387 = mbk_sig390 
* net 388 = mbk_sig333 
* net 389 = mbk_sig291 
* net 390 = mbk_sig293 
* net 391 = mbk_sig118 
* net 392 = mbk_sig120 
* net 393 = mbk_sig141 
* net 394 = mbk_sig140 
* net 395 = mbk_sig71 
* net 396 = mbk_sig75 
* net 397 = mbk_sig65 
* net 398 = mbk_sig62 
* net 399 = mbk_sig28 
* net 400 = mbk_sig207 
* net 401 = mbk_sig215 
* net 402 = mbk_sig228 
* net 403 = mbk_sig227 
* net 404 = mbk_sig146 
* net 405 = mbk_sig170 
* net 406 = mbk_sig197 
* net 407 = mbk_sig42 
* net 408 = mbk_sig41 
* net 409 = mbk_sig208 
* net 410 = mbk_sig216 
* net 411 = mbk_sig229 
* net 412 = mbk_sig230 
* net 413 = mbk_sig148 
* net 414 = mbk_sig171 
* net 415 = mbk_sig198 
* net 416 = mbk_sig46 
* net 417 = mbk_sig48 
* net 418 = mbk_sig209 
* net 419 = mbk_sig217 
* net 420 = mbk_sig232 
* net 421 = mbk_sig231 
* net 422 = mbk_sig151 
* net 423 = mbk_sig174 
* net 424 = mbk_sig199 
* net 425 = mbk_sig54 
* net 426 = mbk_sig51 
* net 427 = mbk_sig210 
* net 428 = mbk_sig218 
* net 429 = mbk_sig233 
* net 430 = mbk_sig234 
* net 431 = mbk_sig152 
* net 432 = mbk_sig175 
* net 433 = mbk_sig200 
* net 434 = mbk_sig56 
* net 435 = mbk_sig58 
* net 436 = rbit_0_0.ram_127_1.m0_s 
* net 437 = rbit_0_0.ram_127_1.m1_s 
* net 438 = rbit_0_0.ram_127_0.m0_s 
* net 439 = rbit_0_0.ram_127_0.m1_s 
* net 440 = rbit_0_0.ram_126_1.m0_s 
* net 441 = rbit_0_0.ram_126_1.m1_s 
* net 442 = rbit_0_0.ram_126_0.m0_s 
* net 443 = rbit_0_0.ram_126_0.m1_s 
* net 444 = rbit_0_0.ram_125_1.m0_s 
* net 445 = rbit_0_0.ram_125_1.m1_s 
* net 446 = rbit_0_0.ram_125_0.m0_s 
* net 447 = rbit_0_0.ram_125_0.m1_s 
* net 448 = rbit_0_0.ram_124_1.m0_s 
* net 449 = rbit_0_0.ram_124_1.m1_s 
* net 450 = rbit_0_0.ram_124_0.m0_s 
* net 451 = rbit_0_0.ram_124_0.m1_s 
* net 452 = rbit_0_0.ram_123_1.m0_s 
* net 453 = rbit_0_0.ram_123_1.m1_s 
* net 454 = rbit_0_0.ram_123_0.m0_s 
* net 455 = rbit_0_0.ram_123_0.m1_s 
* net 456 = rbit_0_0.ram_122_1.m0_s 
* net 457 = rbit_0_0.ram_122_1.m1_s 
* net 458 = rbit_0_0.ram_122_0.m0_s 
* net 459 = rbit_0_0.ram_122_0.m1_s 
* net 460 = rbit_0_0.ram_121_1.m0_s 
* net 461 = rbit_0_0.ram_121_1.m1_s 
* net 462 = rbit_0_0.ram_121_0.m0_s 
* net 463 = rbit_0_0.ram_121_0.m1_s 
* net 464 = rbit_0_0.ram_120_1.m0_s 
* net 465 = rbit_0_0.ram_120_1.m1_s 
* net 466 = rbit_0_0.ram_120_0.m0_s 
* net 467 = rbit_0_0.ram_120_0.m1_s 
* net 468 = rbit_0_0.ram_119_1.m0_s 
* net 469 = rbit_0_0.ram_119_1.m1_s 
* net 470 = rbit_0_0.ram_119_0.m0_s 
* net 471 = rbit_0_0.ram_119_0.m1_s 
* net 472 = rbit_0_0.ram_118_1.m0_s 
* net 473 = rbit_0_0.ram_118_1.m1_s 
* net 474 = rbit_0_0.ram_118_0.m0_s 
* net 475 = rbit_0_0.ram_118_0.m1_s 
* net 476 = rbit_0_0.ram_117_1.m0_s 
* net 477 = rbit_0_0.ram_117_1.m1_s 
* net 478 = rbit_0_0.ram_117_0.m0_s 
* net 479 = rbit_0_0.ram_117_0.m1_s 
* net 480 = rbit_0_0.ram_116_1.m0_s 
* net 481 = rbit_0_0.ram_116_1.m1_s 
* net 482 = rbit_0_0.ram_116_0.m0_s 
* net 483 = rbit_0_0.ram_116_0.m1_s 
* net 484 = rbit_0_0.ram_115_1.m0_s 
* net 485 = rbit_0_0.ram_115_1.m1_s 
* net 486 = rbit_0_0.ram_115_0.m0_s 
* net 487 = rbit_0_0.ram_115_0.m1_s 
* net 488 = rbit_0_0.ram_114_1.m0_s 
* net 489 = rbit_0_0.ram_114_1.m1_s 
* net 490 = rbit_0_0.ram_114_0.m0_s 
* net 491 = rbit_0_0.ram_114_0.m1_s 
* net 492 = rbit_0_0.ram_113_1.m0_s 
* net 493 = rbit_0_0.ram_113_1.m1_s 
* net 494 = rbit_0_0.ram_113_0.m0_s 
* net 495 = rbit_0_0.ram_113_0.m1_s 
* net 496 = rbit_0_0.ram_112_1.m0_s 
* net 497 = rbit_0_0.ram_112_1.m1_s 
* net 498 = rbit_0_0.ram_112_0.m0_s 
* net 499 = rbit_0_0.ram_112_0.m1_s 
* net 500 = rbit_0_0.ram_111_1.m0_s 
* net 501 = rbit_0_0.ram_111_1.m1_s 
* net 502 = rbit_0_0.ram_111_0.m0_s 
* net 503 = rbit_0_0.ram_111_0.m1_s 
* net 504 = rbit_0_0.ram_110_1.m0_s 
* net 505 = rbit_0_0.ram_110_1.m1_s 
* net 506 = rbit_0_0.ram_110_0.m0_s 
* net 507 = rbit_0_0.ram_110_0.m1_s 
* net 508 = rbit_0_0.ram_109_1.m0_s 
* net 509 = rbit_0_0.ram_109_1.m1_s 
* net 510 = rbit_0_0.ram_109_0.m0_s 
* net 511 = rbit_0_0.ram_109_0.m1_s 
* net 512 = rbit_0_0.ram_108_1.m0_s 
* net 513 = rbit_0_0.ram_108_1.m1_s 
* net 514 = rbit_0_0.ram_108_0.m0_s 
* net 515 = rbit_0_0.ram_108_0.m1_s 
* net 516 = rbit_0_0.ram_107_1.m0_s 
* net 517 = rbit_0_0.ram_107_1.m1_s 
* net 518 = rbit_0_0.ram_107_0.m0_s 
* net 519 = rbit_0_0.ram_107_0.m1_s 
* net 520 = rbit_0_0.ram_106_1.m0_s 
* net 521 = rbit_0_0.ram_106_1.m1_s 
* net 522 = rbit_0_0.ram_106_0.m0_s 
* net 523 = rbit_0_0.ram_106_0.m1_s 
* net 524 = rbit_0_0.ram_105_1.m0_s 
* net 525 = rbit_0_0.ram_105_1.m1_s 
* net 526 = rbit_0_0.ram_105_0.m0_s 
* net 527 = rbit_0_0.ram_105_0.m1_s 
* net 528 = rbit_0_0.ram_104_1.m0_s 
* net 529 = rbit_0_0.ram_104_1.m1_s 
* net 530 = rbit_0_0.ram_104_0.m0_s 
* net 531 = rbit_0_0.ram_104_0.m1_s 
* net 532 = rbit_0_0.ram_103_1.m0_s 
* net 533 = rbit_0_0.ram_103_1.m1_s 
* net 534 = rbit_0_0.ram_103_0.m0_s 
* net 535 = rbit_0_0.ram_103_0.m1_s 
* net 536 = rbit_0_0.ram_102_1.m0_s 
* net 537 = rbit_0_0.ram_102_1.m1_s 
* net 538 = rbit_0_0.ram_102_0.m0_s 
* net 539 = rbit_0_0.ram_102_0.m1_s 
* net 540 = rbit_0_0.ram_101_1.m0_s 
* net 541 = rbit_0_0.ram_101_1.m1_s 
* net 542 = rbit_0_0.ram_101_0.m0_s 
* net 543 = rbit_0_0.ram_101_0.m1_s 
* net 544 = rbit_0_0.ram_100_1.m0_s 
* net 545 = rbit_0_0.ram_100_1.m1_s 
* net 546 = rbit_0_0.ram_100_0.m0_s 
* net 547 = rbit_0_0.ram_100_0.m1_s 
* net 548 = rbit_0_0.ram_99_1.m0_s 
* net 549 = rbit_0_0.ram_99_1.m1_s 
* net 550 = rbit_0_0.ram_99_0.m0_s 
* net 551 = rbit_0_0.ram_99_0.m1_s 
* net 552 = rbit_0_0.ram_98_1.m0_s 
* net 553 = rbit_0_0.ram_98_1.m1_s 
* net 554 = rbit_0_0.ram_98_0.m0_s 
* net 555 = rbit_0_0.ram_98_0.m1_s 
* net 556 = rbit_0_0.ram_97_1.m0_s 
* net 557 = rbit_0_0.ram_97_1.m1_s 
* net 558 = rbit_0_0.ram_97_0.m0_s 
* net 559 = rbit_0_0.ram_97_0.m1_s 
* net 560 = rbit_0_0.ram_96_1.m0_s 
* net 561 = rbit_0_0.ram_96_1.m1_s 
* net 562 = rbit_0_0.ram_96_0.m0_s 
* net 563 = rbit_0_0.ram_96_0.m1_s 
* net 564 = rbit_0_0.ram_95_1.m0_s 
* net 565 = rbit_0_0.ram_95_1.m1_s 
* net 566 = rbit_0_0.ram_95_0.m0_s 
* net 567 = rbit_0_0.ram_95_0.m1_s 
* net 568 = rbit_0_0.ram_94_1.m0_s 
* net 569 = rbit_0_0.ram_94_1.m1_s 
* net 570 = rbit_0_0.ram_94_0.m0_s 
* net 571 = rbit_0_0.ram_94_0.m1_s 
* net 572 = rbit_0_0.ram_93_1.m0_s 
* net 573 = rbit_0_0.ram_93_1.m1_s 
* net 574 = rbit_0_0.ram_93_0.m0_s 
* net 575 = rbit_0_0.ram_93_0.m1_s 
* net 576 = rbit_0_0.ram_92_1.m0_s 
* net 577 = rbit_0_0.ram_92_1.m1_s 
* net 578 = rbit_0_0.ram_92_0.m0_s 
* net 579 = rbit_0_0.ram_92_0.m1_s 
* net 580 = rbit_0_0.ram_91_1.m0_s 
* net 581 = rbit_0_0.ram_91_1.m1_s 
* net 582 = rbit_0_0.ram_91_0.m0_s 
* net 583 = rbit_0_0.ram_91_0.m1_s 
* net 584 = rbit_0_0.ram_90_1.m0_s 
* net 585 = rbit_0_0.ram_90_1.m1_s 
* net 586 = rbit_0_0.ram_90_0.m0_s 
* net 587 = rbit_0_0.ram_90_0.m1_s 
* net 588 = rbit_0_0.ram_89_1.m0_s 
* net 589 = rbit_0_0.ram_89_1.m1_s 
* net 590 = rbit_0_0.ram_89_0.m0_s 
* net 591 = rbit_0_0.ram_89_0.m1_s 
* net 592 = rbit_0_0.ram_88_1.m0_s 
* net 593 = rbit_0_0.ram_88_1.m1_s 
* net 594 = rbit_0_0.ram_88_0.m0_s 
* net 595 = rbit_0_0.ram_88_0.m1_s 
* net 596 = rbit_0_0.ram_87_1.m0_s 
* net 597 = rbit_0_0.ram_87_1.m1_s 
* net 598 = rbit_0_0.ram_87_0.m0_s 
* net 599 = rbit_0_0.ram_87_0.m1_s 
* net 600 = rbit_0_0.ram_86_1.m0_s 
* net 601 = rbit_0_0.ram_86_1.m1_s 
* net 602 = rbit_0_0.ram_86_0.m0_s 
* net 603 = rbit_0_0.ram_86_0.m1_s 
* net 604 = rbit_0_0.ram_85_1.m0_s 
* net 605 = rbit_0_0.ram_85_1.m1_s 
* net 606 = rbit_0_0.ram_85_0.m0_s 
* net 607 = rbit_0_0.ram_85_0.m1_s 
* net 608 = rbit_0_0.ram_84_1.m0_s 
* net 609 = rbit_0_0.ram_84_1.m1_s 
* net 610 = rbit_0_0.ram_84_0.m0_s 
* net 611 = rbit_0_0.ram_84_0.m1_s 
* net 612 = rbit_0_0.ram_83_1.m0_s 
* net 613 = rbit_0_0.ram_83_1.m1_s 
* net 614 = rbit_0_0.ram_83_0.m0_s 
* net 615 = rbit_0_0.ram_83_0.m1_s 
* net 616 = rbit_0_0.ram_82_1.m0_s 
* net 617 = rbit_0_0.ram_82_1.m1_s 
* net 618 = rbit_0_0.ram_82_0.m0_s 
* net 619 = rbit_0_0.ram_82_0.m1_s 
* net 620 = rbit_0_0.ram_81_1.m0_s 
* net 621 = rbit_0_0.ram_81_1.m1_s 
* net 622 = rbit_0_0.ram_81_0.m0_s 
* net 623 = rbit_0_0.ram_81_0.m1_s 
* net 624 = rbit_0_0.ram_80_1.m0_s 
* net 625 = rbit_0_0.ram_80_1.m1_s 
* net 626 = rbit_0_0.ram_80_0.m0_s 
* net 627 = rbit_0_0.ram_80_0.m1_s 
* net 628 = rbit_0_0.ram_79_1.m0_s 
* net 629 = rbit_0_0.ram_79_1.m1_s 
* net 630 = rbit_0_0.ram_79_0.m0_s 
* net 631 = rbit_0_0.ram_79_0.m1_s 
* net 632 = rbit_0_0.ram_78_1.m0_s 
* net 633 = rbit_0_0.ram_78_1.m1_s 
* net 634 = rbit_0_0.ram_78_0.m0_s 
* net 635 = rbit_0_0.ram_78_0.m1_s 
* net 636 = rbit_0_0.ram_77_1.m0_s 
* net 637 = rbit_0_0.ram_77_1.m1_s 
* net 638 = rbit_0_0.ram_77_0.m0_s 
* net 639 = rbit_0_0.ram_77_0.m1_s 
* net 640 = rbit_0_0.ram_76_1.m0_s 
* net 641 = rbit_0_0.ram_76_1.m1_s 
* net 642 = rbit_0_0.ram_76_0.m0_s 
* net 643 = rbit_0_0.ram_76_0.m1_s 
* net 644 = rbit_0_0.ram_75_1.m0_s 
* net 645 = rbit_0_0.ram_75_1.m1_s 
* net 646 = rbit_0_0.ram_75_0.m0_s 
* net 647 = rbit_0_0.ram_75_0.m1_s 
* net 648 = rbit_0_0.ram_74_1.m0_s 
* net 649 = rbit_0_0.ram_74_1.m1_s 
* net 650 = rbit_0_0.ram_74_0.m0_s 
* net 651 = rbit_0_0.ram_74_0.m1_s 
* net 652 = rbit_0_0.ram_73_1.m0_s 
* net 653 = rbit_0_0.ram_73_1.m1_s 
* net 654 = rbit_0_0.ram_73_0.m0_s 
* net 655 = rbit_0_0.ram_73_0.m1_s 
* net 656 = rbit_0_0.ram_72_1.m0_s 
* net 657 = rbit_0_0.ram_72_1.m1_s 
* net 658 = rbit_0_0.ram_72_0.m0_s 
* net 659 = rbit_0_0.ram_72_0.m1_s 
* net 660 = rbit_0_0.ram_71_1.m0_s 
* net 661 = rbit_0_0.ram_71_1.m1_s 
* net 662 = rbit_0_0.ram_71_0.m0_s 
* net 663 = rbit_0_0.ram_71_0.m1_s 
* net 664 = rbit_0_0.ram_70_1.m0_s 
* net 665 = rbit_0_0.ram_70_1.m1_s 
* net 666 = rbit_0_0.ram_70_0.m0_s 
* net 667 = rbit_0_0.ram_70_0.m1_s 
* net 668 = rbit_0_0.ram_69_1.m0_s 
* net 669 = rbit_0_0.ram_69_1.m1_s 
* net 670 = rbit_0_0.ram_69_0.m0_s 
* net 671 = rbit_0_0.ram_69_0.m1_s 
* net 672 = rbit_0_0.ram_68_1.m0_s 
* net 673 = rbit_0_0.ram_68_1.m1_s 
* net 674 = rbit_0_0.ram_68_0.m0_s 
* net 675 = rbit_0_0.ram_68_0.m1_s 
* net 676 = rbit_0_0.ram_67_1.m0_s 
* net 677 = rbit_0_0.ram_67_1.m1_s 
* net 678 = rbit_0_0.ram_67_0.m0_s 
* net 679 = rbit_0_0.ram_67_0.m1_s 
* net 680 = rbit_0_0.ram_66_1.m0_s 
* net 681 = rbit_0_0.ram_66_1.m1_s 
* net 682 = rbit_0_0.ram_66_0.m0_s 
* net 683 = rbit_0_0.ram_66_0.m1_s 
* net 684 = rbit_0_0.ram_65_1.m0_s 
* net 685 = rbit_0_0.ram_65_1.m1_s 
* net 686 = rbit_0_0.ram_65_0.m0_s 
* net 687 = rbit_0_0.ram_65_0.m1_s 
* net 688 = rbit_0_0.ram_64_1.m0_s 
* net 689 = rbit_0_0.ram_64_1.m1_s 
* net 690 = rbit_0_0.ram_64_0.m0_s 
* net 691 = rbit_0_0.ram_64_0.m1_s 
* net 692 = rbit_0_0.ram_63_1.m0_s 
* net 693 = rbit_0_0.ram_63_1.m1_s 
* net 694 = rbit_0_0.ram_63_0.m0_s 
* net 695 = rbit_0_0.ram_63_0.m1_s 
* net 696 = rbit_0_0.ram_62_1.m0_s 
* net 697 = rbit_0_0.ram_62_1.m1_s 
* net 698 = rbit_0_0.ram_62_0.m0_s 
* net 699 = rbit_0_0.ram_62_0.m1_s 
* net 700 = rbit_0_0.ram_61_1.m0_s 
* net 701 = rbit_0_0.ram_61_1.m1_s 
* net 702 = rbit_0_0.ram_61_0.m0_s 
* net 703 = rbit_0_0.ram_61_0.m1_s 
* net 704 = rbit_0_0.ram_60_1.m0_s 
* net 705 = rbit_0_0.ram_60_1.m1_s 
* net 706 = rbit_0_0.ram_60_0.m0_s 
* net 707 = rbit_0_0.ram_60_0.m1_s 
* net 708 = rbit_0_0.ram_59_1.m0_s 
* net 709 = rbit_0_0.ram_59_1.m1_s 
* net 710 = rbit_0_0.ram_59_0.m0_s 
* net 711 = rbit_0_0.ram_59_0.m1_s 
* net 712 = rbit_0_0.ram_58_1.m0_s 
* net 713 = rbit_0_0.ram_58_1.m1_s 
* net 714 = rbit_0_0.ram_58_0.m0_s 
* net 715 = rbit_0_0.ram_58_0.m1_s 
* net 716 = rbit_0_0.ram_57_1.m0_s 
* net 717 = rbit_0_0.ram_57_1.m1_s 
* net 718 = rbit_0_0.ram_57_0.m0_s 
* net 719 = rbit_0_0.ram_57_0.m1_s 
* net 720 = rbit_0_0.ram_56_1.m0_s 
* net 721 = rbit_0_0.ram_56_1.m1_s 
* net 722 = rbit_0_0.ram_56_0.m0_s 
* net 723 = rbit_0_0.ram_56_0.m1_s 
* net 724 = rbit_0_0.ram_55_1.m0_s 
* net 725 = rbit_0_0.ram_55_1.m1_s 
* net 726 = rbit_0_0.ram_55_0.m0_s 
* net 727 = rbit_0_0.ram_55_0.m1_s 
* net 728 = rbit_0_0.ram_54_1.m0_s 
* net 729 = rbit_0_0.ram_54_1.m1_s 
* net 730 = rbit_0_0.ram_54_0.m0_s 
* net 731 = rbit_0_0.ram_54_0.m1_s 
* net 732 = rbit_0_0.ram_53_1.m0_s 
* net 733 = rbit_0_0.ram_53_1.m1_s 
* net 734 = rbit_0_0.ram_53_0.m0_s 
* net 735 = rbit_0_0.ram_53_0.m1_s 
* net 736 = rbit_0_0.ram_52_1.m0_s 
* net 737 = rbit_0_0.ram_52_1.m1_s 
* net 738 = rbit_0_0.ram_52_0.m0_s 
* net 739 = rbit_0_0.ram_52_0.m1_s 
* net 740 = rbit_0_0.ram_51_1.m0_s 
* net 741 = rbit_0_0.ram_51_1.m1_s 
* net 742 = rbit_0_0.ram_51_0.m0_s 
* net 743 = rbit_0_0.ram_51_0.m1_s 
* net 744 = rbit_0_0.ram_50_1.m0_s 
* net 745 = rbit_0_0.ram_50_1.m1_s 
* net 746 = rbit_0_0.ram_50_0.m0_s 
* net 747 = rbit_0_0.ram_50_0.m1_s 
* net 748 = rbit_0_0.ram_49_1.m0_s 
* net 749 = rbit_0_0.ram_49_1.m1_s 
* net 750 = rbit_0_0.ram_49_0.m0_s 
* net 751 = rbit_0_0.ram_49_0.m1_s 
* net 752 = rbit_0_0.ram_48_1.m0_s 
* net 753 = rbit_0_0.ram_48_1.m1_s 
* net 754 = rbit_0_0.ram_48_0.m0_s 
* net 755 = rbit_0_0.ram_48_0.m1_s 
* net 756 = rbit_0_0.ram_47_1.m0_s 
* net 757 = rbit_0_0.ram_47_1.m1_s 
* net 758 = rbit_0_0.ram_47_0.m0_s 
* net 759 = rbit_0_0.ram_47_0.m1_s 
* net 760 = rbit_0_0.ram_46_1.m0_s 
* net 761 = rbit_0_0.ram_46_1.m1_s 
* net 762 = rbit_0_0.ram_46_0.m0_s 
* net 763 = rbit_0_0.ram_46_0.m1_s 
* net 764 = rbit_0_0.ram_45_1.m0_s 
* net 765 = rbit_0_0.ram_45_1.m1_s 
* net 766 = rbit_0_0.ram_45_0.m0_s 
* net 767 = rbit_0_0.ram_45_0.m1_s 
* net 768 = rbit_0_0.ram_44_1.m0_s 
* net 769 = rbit_0_0.ram_44_1.m1_s 
* net 770 = rbit_0_0.ram_44_0.m0_s 
* net 771 = rbit_0_0.ram_44_0.m1_s 
* net 772 = rbit_0_0.ram_43_1.m0_s 
* net 773 = rbit_0_0.ram_43_1.m1_s 
* net 774 = rbit_0_0.ram_43_0.m0_s 
* net 775 = rbit_0_0.ram_43_0.m1_s 
* net 776 = rbit_0_0.ram_42_1.m0_s 
* net 777 = rbit_0_0.ram_42_1.m1_s 
* net 778 = rbit_0_0.ram_42_0.m0_s 
* net 779 = rbit_0_0.ram_42_0.m1_s 
* net 780 = rbit_0_0.ram_41_1.m0_s 
* net 781 = rbit_0_0.ram_41_1.m1_s 
* net 782 = rbit_0_0.ram_41_0.m0_s 
* net 783 = rbit_0_0.ram_41_0.m1_s 
* net 784 = rbit_0_0.ram_40_1.m0_s 
* net 785 = rbit_0_0.ram_40_1.m1_s 
* net 786 = rbit_0_0.ram_40_0.m0_s 
* net 787 = rbit_0_0.ram_40_0.m1_s 
* net 788 = rbit_0_0.ram_39_1.m0_s 
* net 789 = rbit_0_0.ram_39_1.m1_s 
* net 790 = rbit_0_0.ram_39_0.m0_s 
* net 791 = rbit_0_0.ram_39_0.m1_s 
* net 792 = rbit_0_0.ram_38_1.m0_s 
* net 793 = rbit_0_0.ram_38_1.m1_s 
* net 794 = rbit_0_0.ram_38_0.m0_s 
* net 795 = rbit_0_0.ram_38_0.m1_s 
* net 796 = rbit_0_0.ram_37_1.m0_s 
* net 797 = rbit_0_0.ram_37_1.m1_s 
* net 798 = rbit_0_0.ram_37_0.m0_s 
* net 799 = rbit_0_0.ram_37_0.m1_s 
* net 800 = rbit_0_0.ram_36_1.m0_s 
* net 801 = rbit_0_0.ram_36_1.m1_s 
* net 802 = rbit_0_0.ram_36_0.m0_s 
* net 803 = rbit_0_0.ram_36_0.m1_s 
* net 804 = rbit_0_0.ram_35_1.m0_s 
* net 805 = rbit_0_0.ram_35_1.m1_s 
* net 806 = rbit_0_0.ram_35_0.m0_s 
* net 807 = rbit_0_0.ram_35_0.m1_s 
* net 808 = rbit_0_0.ram_34_1.m0_s 
* net 809 = rbit_0_0.ram_34_1.m1_s 
* net 810 = rbit_0_0.ram_34_0.m0_s 
* net 811 = rbit_0_0.ram_34_0.m1_s 
* net 812 = rbit_0_0.ram_33_1.m0_s 
* net 813 = rbit_0_0.ram_33_1.m1_s 
* net 814 = rbit_0_0.ram_33_0.m0_s 
* net 815 = rbit_0_0.ram_33_0.m1_s 
* net 816 = rbit_0_0.ram_32_1.m0_s 
* net 817 = rbit_0_0.ram_32_1.m1_s 
* net 818 = rbit_0_0.ram_32_0.m0_s 
* net 819 = rbit_0_0.ram_32_0.m1_s 
* net 820 = rbit_0_0.ram_31_1.m0_s 
* net 821 = rbit_0_0.ram_31_1.m1_s 
* net 822 = rbit_0_0.ram_31_0.m0_s 
* net 823 = rbit_0_0.ram_31_0.m1_s 
* net 824 = rbit_0_0.ram_30_1.m0_s 
* net 825 = rbit_0_0.ram_30_1.m1_s 
* net 826 = rbit_0_0.ram_30_0.m0_s 
* net 827 = rbit_0_0.ram_30_0.m1_s 
* net 828 = rbit_0_0.ram_29_1.m0_s 
* net 829 = rbit_0_0.ram_29_1.m1_s 
* net 830 = rbit_0_0.ram_29_0.m0_s 
* net 831 = rbit_0_0.ram_29_0.m1_s 
* net 832 = rbit_0_0.ram_28_1.m0_s 
* net 833 = rbit_0_0.ram_28_1.m1_s 
* net 834 = rbit_0_0.ram_28_0.m0_s 
* net 835 = rbit_0_0.ram_28_0.m1_s 
* net 836 = rbit_0_0.ram_27_1.m0_s 
* net 837 = rbit_0_0.ram_27_1.m1_s 
* net 838 = rbit_0_0.ram_27_0.m0_s 
* net 839 = rbit_0_0.ram_27_0.m1_s 
* net 840 = rbit_0_0.ram_26_1.m0_s 
* net 841 = rbit_0_0.ram_26_1.m1_s 
* net 842 = rbit_0_0.ram_26_0.m0_s 
* net 843 = rbit_0_0.ram_26_0.m1_s 
* net 844 = rbit_0_0.ram_25_1.m0_s 
* net 845 = rbit_0_0.ram_25_1.m1_s 
* net 846 = rbit_0_0.ram_25_0.m0_s 
* net 847 = rbit_0_0.ram_25_0.m1_s 
* net 848 = rbit_0_0.ram_24_1.m0_s 
* net 849 = rbit_0_0.ram_24_1.m1_s 
* net 850 = rbit_0_0.ram_24_0.m0_s 
* net 851 = rbit_0_0.ram_24_0.m1_s 
* net 852 = rbit_0_0.ram_23_1.m0_s 
* net 853 = rbit_0_0.ram_23_1.m1_s 
* net 854 = rbit_0_0.ram_23_0.m0_s 
* net 855 = rbit_0_0.ram_23_0.m1_s 
* net 856 = rbit_0_0.ram_22_1.m0_s 
* net 857 = rbit_0_0.ram_22_1.m1_s 
* net 858 = rbit_0_0.ram_22_0.m0_s 
* net 859 = rbit_0_0.ram_22_0.m1_s 
* net 860 = rbit_0_0.ram_21_1.m0_s 
* net 861 = rbit_0_0.ram_21_1.m1_s 
* net 862 = rbit_0_0.ram_21_0.m0_s 
* net 863 = rbit_0_0.ram_21_0.m1_s 
* net 864 = rbit_0_0.ram_20_1.m0_s 
* net 865 = rbit_0_0.ram_20_1.m1_s 
* net 866 = rbit_0_0.ram_20_0.m0_s 
* net 867 = rbit_0_0.ram_20_0.m1_s 
* net 868 = rbit_0_0.ram_19_1.m0_s 
* net 869 = rbit_0_0.ram_19_1.m1_s 
* net 870 = rbit_0_0.ram_19_0.m0_s 
* net 871 = rbit_0_0.ram_19_0.m1_s 
* net 872 = rbit_0_0.ram_18_1.m0_s 
* net 873 = rbit_0_0.ram_18_1.m1_s 
* net 874 = rbit_0_0.ram_18_0.m0_s 
* net 875 = rbit_0_0.ram_18_0.m1_s 
* net 876 = rbit_0_0.ram_17_1.m0_s 
* net 877 = rbit_0_0.ram_17_1.m1_s 
* net 878 = rbit_0_0.ram_17_0.m0_s 
* net 879 = rbit_0_0.ram_17_0.m1_s 
* net 880 = rbit_0_0.ram_16_1.m0_s 
* net 881 = rbit_0_0.ram_16_1.m1_s 
* net 882 = rbit_0_0.ram_16_0.m0_s 
* net 883 = rbit_0_0.ram_16_0.m1_s 
* net 884 = rbit_0_0.ram_15_1.m0_s 
* net 885 = rbit_0_0.ram_15_1.m1_s 
* net 886 = rbit_0_0.ram_15_0.m0_s 
* net 887 = rbit_0_0.ram_15_0.m1_s 
* net 888 = rbit_0_0.ram_14_1.m0_s 
* net 889 = rbit_0_0.ram_14_1.m1_s 
* net 890 = rbit_0_0.ram_14_0.m0_s 
* net 891 = rbit_0_0.ram_14_0.m1_s 
* net 892 = rbit_0_0.ram_13_1.m0_s 
* net 893 = rbit_0_0.ram_13_1.m1_s 
* net 894 = rbit_0_0.ram_13_0.m0_s 
* net 895 = rbit_0_0.ram_13_0.m1_s 
* net 896 = rbit_0_0.ram_12_1.m0_s 
* net 897 = rbit_0_0.ram_12_1.m1_s 
* net 898 = rbit_0_0.ram_12_0.m0_s 
* net 899 = rbit_0_0.ram_12_0.m1_s 
* net 900 = rbit_0_0.ram_11_1.m0_s 
* net 901 = rbit_0_0.ram_11_1.m1_s 
* net 902 = rbit_0_0.ram_11_0.m0_s 
* net 903 = rbit_0_0.ram_11_0.m1_s 
* net 904 = rbit_0_0.ram_10_1.m0_s 
* net 905 = rbit_0_0.ram_10_1.m1_s 
* net 906 = rbit_0_0.ram_10_0.m0_s 
* net 907 = rbit_0_0.ram_10_0.m1_s 
* net 908 = rbit_0_0.ram_9_1.m0_s 
* net 909 = rbit_0_0.ram_9_1.m1_s 
* net 910 = rbit_0_0.ram_9_0.m0_s 
* net 911 = rbit_0_0.ram_9_0.m1_s 
* net 912 = rbit_0_0.ram_8_1.m0_s 
* net 913 = rbit_0_0.ram_8_1.m1_s 
* net 914 = rbit_0_0.ram_8_0.m0_s 
* net 915 = rbit_0_0.ram_8_0.m1_s 
* net 916 = rbit_0_0.ram_7_1.m0_s 
* net 917 = rbit_0_0.ram_7_1.m1_s 
* net 918 = rbit_0_0.ram_7_0.m0_s 
* net 919 = rbit_0_0.ram_7_0.m1_s 
* net 920 = rbit_0_0.ram_6_1.m0_s 
* net 921 = rbit_0_0.ram_6_1.m1_s 
* net 922 = rbit_0_0.ram_6_0.m0_s 
* net 923 = rbit_0_0.ram_6_0.m1_s 
* net 924 = rbit_0_0.ram_5_1.m0_s 
* net 925 = rbit_0_0.ram_5_1.m1_s 
* net 926 = rbit_0_0.ram_5_0.m0_s 
* net 927 = rbit_0_0.ram_5_0.m1_s 
* net 928 = rbit_0_0.ram_4_1.m0_s 
* net 929 = rbit_0_0.ram_4_1.m1_s 
* net 930 = rbit_0_0.ram_4_0.m0_s 
* net 931 = rbit_0_0.ram_4_0.m1_s 
* net 932 = rbit_0_0.ram_3_1.m0_s 
* net 933 = rbit_0_0.ram_3_1.m1_s 
* net 934 = rbit_0_0.ram_3_0.m0_s 
* net 935 = rbit_0_0.ram_3_0.m1_s 
* net 936 = rbit_0_0.ram_2_1.m0_s 
* net 937 = rbit_0_0.ram_2_1.m1_s 
* net 938 = rbit_0_0.ram_2_0.m0_s 
* net 939 = rbit_0_0.ram_2_0.m1_s 
* net 940 = rbit_0_0.ram_1_1.m0_s 
* net 941 = rbit_0_0.ram_1_1.m1_s 
* net 942 = rbit_0_0.ram_1_0.m0_s 
* net 943 = rbit_0_0.ram_1_0.m1_s 
* net 944 = rbit_0_0.ram_0_1.m0_s 
* net 945 = rbit_0_0.ram_0_1.m1_s 
* net 946 = rbit_0_0.ram_0_0.m0_s 
* net 947 = rbit_0_0.ram_0_0.m1_s 
* net 948 = mbk_sig133 
* net 949 = mbk_sig109 
* net 950 = mbk_sig158 
* net 951 = mbk_sig108 
* net 952 = mbk_sig180 
* net 953 = mbk_sig4 
* net 954 = mbk_sig2 
* net 955 = mbk_sig66 
* net 956 = mbk_sig98 
* net 957 = mbk_sig90 
* net 958 = mbk_sig82 
* net 959 = rbit_1_0.ram_127_1.m0_s 
* net 960 = rbit_1_0.ram_127_1.m1_s 
* net 961 = rbit_1_0.ram_127_0.m0_s 
* net 962 = rbit_1_0.ram_127_0.m1_s 
* net 963 = rbit_1_0.ram_126_1.m0_s 