* Spice description of r256x8_6
* Spice driver version 700
* Date ( dd/mm/yyyy hh:mm:ss ): 20/09/2002 at 17:50:09

* INTERF adr[0] adr[1] adr[2] adr[3] adr[4] adr[5] adr[6] adr[7] ck[0] ck[1] 
* INTERF f[0] f[1] f[2] f[3] f[4] f[5] f[6] f[7] vdd vss 


.subckt r256x8_6 2356 2350 2351 2352 2344 2345 2346 2342 2258 1 2374 
+ 2371 2369 2367 2365 2363 2361 2359 2372 2375 
* NET 1 = ck[1] 
* NET 5 = rl/7.w1 
* NET 66 = rbl4/1/2.e0 
* NET 67 = rck.ckp 
* NET 77 = rl/7.e1 
* NET 78 = rl/7.tr_p 
* NET 79 = rl/7.w2 
* NET 80 = rl/7.w3 
* NET 81 = rl/7.w4 
* NET 262 = rbl4/1/2.e1 
* NET 263 = rbl4/1/2.e2 
* NET 264 = rbl4/1/2.e3 
* NET 282 = rl/6.e1 
* NET 283 = rl/6.tr_p 
* NET 284 = rl/6.w1 
* NET 285 = rl/6.w2 
* NET 286 = rl/6.w3 
* NET 287 = rl/6.w4 
* NET 528 = rbl4/1/2.e7 
* NET 529 = rbl4/1/2.e6 
* NET 530 = umf.e31 
* NET 531 = rbl4/1/2.e5 
* NET 552 = rl/5.w1 
* NET 553 = rl/5.w2 
* NET 554 = rl/5.w3 
* NET 735 = rbl4/1/2.e10 
* NET 736 = rbl4/1/2.e8 
* NET 737 = rbl4/1/2.e9 
* NET 754 = rl/5.e1 
* NET 755 = rl/5.tr_p 
* NET 756 = rl/5.w4 
* NET 757 = rl/4.w1 
* NET 758 = rl/4.w2 
* NET 983 = rbl4/1/2.e11 
* NET 1000 = rbl4/1/2.e14 
* NET 1001 = rbl4/1/2.e13 
* NET 1002 = rbl4/1/2.e12 
* NET 1023 = rl/4.e1 
* NET 1024 = rl/4.tr_p 
* NET 1025 = rl/4.w3 
* NET 1026 = rl/4.w4 
* NET 1027 = rl/3.w1 
* NET 1028 = rl/3.w2 
* NET 1209 = umf.e0 
* NET 1210 = rbl4/1/2.e15 
* NET 1211 = umf.e1 
* NET 1229 = rl/3.e1 
* NET 1230 = rl/3.tr_p 
* NET 1231 = rl/3.w3 
* NET 1232 = rl/3.w4 
* NET 1233 = rl/2.w1 
* NET 1234 = rl/2.w2 
* NET 1475 = umf.e2 
* NET 1476 = umf.e5 
* NET 1477 = umf.e4 
* NET 1478 = umf.e3 
* NET 1500 = rl/2.e1 
* NET 1501 = rl/2.tr_p 
* NET 1502 = rl/2.w3 
* NET 1503 = rl/2.w4 
* NET 1504 = rl/1.w1 
* NET 1685 = umf.e8 
* NET 1686 = umf.e7 
* NET 1687 = umf.e6 
* NET 1703 = rl/1.e1 
* NET 1704 = rl/1.tr_p 
* NET 1705 = rl/1.w2 
* NET 1706 = rl/1.w3 
* NET 1707 = rl/1.w4 
* NET 1708 = rl/0.w1 
* NET 1933 = umf.e9 
* NET 1950 = umf.e12 
* NET 1951 = umf.e11 
* NET 1952 = umf.e10 
* NET 1971 = rck.ck_02 
* NET 1975 = rl/0.e1 
* NET 1976 = rl/0.tr_p 
* NET 1977 = rck.ck_03 
* NET 1978 = rl/0.w2 
* NET 1979 = rl/0.w3 
* NET 1980 = rl/0.w4 
* NET 2161 = umf.e14 
* NET 2162 = umf.e13 
* NET 2163 = umf.e15 
* NET 2176 = rw2.n1 
* NET 2177 = rw3.n1 
* NET 2178 = rw1.n1 
* NET 2179 = rw0.n1 
* NET 2180 = rc116.n2 
* NET 2191 = rp4/15.s3 
* NET 2192 = rmx4/15.bl0_p 
* NET 2193 = rp4/14.s2 
* NET 2194 = rp4/14.s1 
* NET 2195 = rp4/15.s2 
* NET 2196 = rp4/15.s1 
* NET 2197 = rp4/14.s3 
* NET 2198 = rmx4/14.bl0_p 
* NET 2199 = rp4/13.s3 
* NET 2200 = rmx4/13.bl0_p 
* NET 2201 = rp4/12.s2 
* NET 2202 = rp4/13.s2 
* NET 2203 = rp4/12.s3 
* NET 2204 = rp4/12.s1 
* NET 2205 = rp4/13.s1 
* NET 2206 = rp4/11.s3 
* NET 2207 = rmx4/11.bl0_p 
* NET 2208 = rp4/11.s2 
* NET 2209 = rp4/11.s1 
* NET 2210 = rmx4/12.bl0_p 
* NET 2211 = rp4/10.s2 
* NET 2212 = rp4/10.s3 
* NET 2213 = rp4/10.s1 
* NET 2214 = rmx4/10.bl0_p 
* NET 2215 = rp4/9.s3 
* NET 2216 = rmx4/9.bl0_p 
* NET 2217 = rp4/9.s2 
* NET 2218 = rp4/9.s1 
* NET 2219 = rmx4/7.bl0_p 
* NET 2220 = rp4/7.s3 
* NET 2221 = rp4/8.s3 
* NET 2222 = rmx4/8.bl0_p 
* NET 2223 = rp4/8.s2 
* NET 2224 = rp4/8.s1 
* NET 2225 = rp4/6.s2 
* NET 2226 = rp4/6.s1 
* NET 2227 = rp4/7.s2 
* NET 2228 = rp4/7.s1 
* NET 2229 = rp4/5.s3 
* NET 2230 = rmx4/5.bl0_p 
* NET 2231 = rp4/6.s3 
* NET 2232 = rmx4/6.bl0_p 
* NET 2233 = rp4/4.s2 
* NET 2234 = rp4/4.s1 
* NET 2235 = rp4/5.s2 
* NET 2236 = rp4/5.s1 
* NET 2237 = rp4/3.s2 
* NET 2238 = rp4/3.s3 
* NET 2239 = rp4/3.s1 
* NET 2240 = rmx4/3.bl0_p 
* NET 2241 = rp4/4.s3 
* NET 2242 = rmx4/4.bl0_p 
* NET 2243 = rp4/2.s2 
* NET 2244 = rp4/2.s3 
* NET 2245 = rp4/2.s1 
* NET 2246 = rmx4/2.bl0_p 
* NET 2247 = rp4/1.s2 
* NET 2248 = rp4/1.s3 
* NET 2249 = rp4/1.s1 
* NET 2250 = rmx4/1.bl0_p 
* NET 2251 = x0.w2 
* NET 2252 = x0.w1 
* NET 2253 = x0.w0 
* NET 2254 = rp4/0.s2 
* NET 2255 = rp4/0.s3 
* NET 2256 = rp4/0.s1 
* NET 2257 = rmx4/0.bl0_p 
* NET 2258 = ck[0] 
* NET 2265 = rw1.inv 
* NET 2268 = x2.ck_11 
* NET 2270 = x1.w3 
* NET 2271 = rmx4/15.bit_p 
* NET 2272 = rmx4/14.bit_p 
* NET 2273 = rmx4/13.bit_p 
* NET 2274 = rmx4/12.bit_p 
* NET 2275 = rmx4/11.bit_p 
* NET 2276 = rmx4/10.bit_p 
* NET 2277 = rmx4/9.bit_p 
* NET 2278 = rmx4/8.bit_p 
* NET 2279 = rmx4/7.bit_p 
* NET 2280 = rmx4/6.bit_p 
* NET 2281 = rmx4/5.bit_p 
* NET 2282 = rmx4/4.bit_p 
* NET 2283 = rmx4/3.bit_p 
* NET 2284 = rmx4/2.bit_p 
* NET 2285 = rmx4/1.bit_p 
* NET 2286 = x1.ck_13 
* NET 2287 = rmx4/0.bit_p 
* NET 2290 = x2.n3b 
* NET 2292 = rmx2/7.i1 
* NET 2294 = rmx2/7.i0 
* NET 2296 = rmx2/7.s_p 
* NET 2300 = rmx2/6.s_p 
* NET 2302 = rmx2/5.i1 
* NET 2305 = rmx2/5.i0 
* NET 2306 = rmx2/5.s_p 
* NET 2308 = rmx2/3.i1 
* NET 2313 = rmx2/4.s_p 
* NET 2314 = rmx2/3.i0 
* NET 2316 = rmx2/3.s_p 
* NET 2321 = rmx2/1.i1 
* NET 2322 = rmx2/2.s_p 
* NET 2325 = rmx2/1.i0 
* NET 2326 = rmx2/1.s_p 
* NET 2329 = bf.e1 
* NET 2330 = bf.e0 
* NET 2332 = rmx2/0.s_p 
* NET 2342 = adr[7] 
* NET 2343 = rli/0.f 
* NET 2344 = adr[4] 
* NET 2345 = adr[5] 
* NET 2346 = adr[6] 
* NET 2347 = rw3.e1 
* NET 2348 = rli/2.f 
* NET 2349 = rli/1.f 
* NET 2350 = adr[1] 
* NET 2351 = adr[2] 
* NET 2352 = adr[3] 
* NET 2353 = x1.s5 
* NET 2354 = x2.s0 
* NET 2355 = rw3.e3 
* NET 2356 = adr[0] 
* NET 2357 = x0.s7 
* NET 2358 = rob/7.vss1 
* NET 2359 = f[7] 
* NET 2360 = rob/6.vss1 
* NET 2361 = f[6] 
* NET 2362 = rob/5.vss1 
* NET 2363 = f[5] 
* NET 2364 = rob/4.vss1 
* NET 2365 = f[4] 
* NET 2366 = rob/3.vss1 
* NET 2367 = f[3] 
* NET 2368 = rob/2.vss1 
* NET 2369 = f[2] 
* NET 2370 = rob/1.vss1 
* NET 2371 = f[1] 
* NET 2372 = vdd 
* NET 2373 = rob/0.vss1 
* NET 2374 = f[0] 
* NET 2375 = vss 
Mtr_02885 2 1 2372 2372 tp L=1U W=14U AS=28P AD=28P PS=32U PD=32U 
Mtr_02884 1971 2 2372 2372 tp L=1U W=10U AS=20P AD=20P PS=24U PD=24U 
Mtr_02883 2372 2 1971 2372 tp L=1U W=10U AS=20P AD=20P PS=24U PD=24U 
Mtr_02882 1971 2 2372 2372 tp L=1U W=7U AS=14P AD=14P PS=18U PD=18U 
Mtr_02881 2372 1971 1977 2372 tp L=1U W=36U AS=72P AD=72P PS=76U PD=76U 
Mtr_02880 2372 1977 3 2372 tp L=1U W=11U AS=22P AD=22P PS=26U PD=26U 
Mtr_02879 2372 3 4 2372 tp L=1U W=14U AS=28P AD=28P PS=32U PD=32U 
Mtr_02878 67 4 2372 2372 tp L=1U W=54U AS=108P AD=108P PS=112U PD=112U 
Mtr_02877 75 2342 2372 2372 tp L=1U W=3U AS=6P AD=6P PS=10U PD=10U 
Mtr_02876 2372 75 73 2372 tp L=1U W=19U AS=38P AD=38P PS=42U PD=42U 
Mtr_02875 75 2345 2372 2372 tp L=1U W=3U AS=6P AD=6P PS=10U PD=10U 
Mtr_02874 72 2375 77 2372 tp L=1U W=19U AS=38P AD=38P PS=42U PD=42U 
Mtr_02873 73 1971 72 2372 tp L=1U W=19U AS=38P AD=38P PS=42U PD=42U 
Mtr_02872 2372 2346 75 2372 tp L=1U W=3U AS=6P AD=6P PS=10U PD=10U 
Mtr_02871 78 1977 2372 2372 tp L=1U W=4U AS=8P AD=8P PS=12U PD=12U 
Mtr_02870 2372 5 66 2372 tp L=1U W=45U AS=90P AD=90P PS=94U PD=94U 
Mtr_02869 262 79 2372 2372 tp L=1U W=45U AS=90P AD=90P PS=94U PD=94U 
Mtr_02868 262 79 2372 2372 tp L=1U W=46U AS=92P AD=92P PS=96U PD=96U 
Mtr_02867 2372 66 5 2372 tp L=2U W=2U AS=4P AD=4P PS=8U PD=8U 
Mtr_02866 79 262 2372 2372 tp L=2U W=2U AS=4P AD=4P PS=8U PD=8U 
Mtr_02865 2372 1977 5 2372 tp L=1U W=11U AS=22P AD=22P PS=26U PD=26U 
Mtr_02864 79 1977 2372 2372 tp L=1U W=11U AS=22P AD=22P PS=26U PD=26U 
Mtr_02863 2372 80 263 2372 tp L=1U W=46U AS=92P AD=92P PS=96U PD=96U 
Mtr_02862 264 81 2372 2372 tp L=1U W=46U AS=92P AD=92P PS=96U PD=96U 
Mtr_02861 2372 80 263 2372 tp L=1U W=45U AS=90P AD=90P PS=94U PD=94U 
Mtr_02860 264 81 2372 2372 tp L=1U W=45U AS=90P AD=90P PS=94U PD=94U 
Mtr_02859 2372 1977 80 2372 tp L=1U W=11U AS=22P AD=22P PS=26U PD=26U 
Mtr_02858 81 1977 2372 2372 tp L=1U W=11U AS=22P AD=22P PS=26U PD=26U 
Mtr_02857 81 264 2372 2372 tp L=2U W=2U AS=4P AD=4P PS=8U PD=8U 
Mtr_02856 2372 263 80 2372 tp L=2U W=2U AS=4P AD=4P PS=8U PD=8U 
Mtr_02855 2372 5 66 2372 tp L=1U W=46U AS=92P AD=92P PS=96U PD=96U 
Mtr_02854 281 2342 2372 2372 tp L=1U W=3U AS=6P AD=6P PS=10U PD=10U 
Mtr_02853 2372 281 278 2372 tp L=1U W=19U AS=38P AD=38P PS=42U PD=42U 
Mtr_02852 281 2348 2372 2372 tp L=1U W=3U AS=6P AD=6P PS=10U PD=10U 
Mtr_02851 277 2375 282 2372 tp L=1U W=19U AS=38P AD=38P PS=42U PD=42U 
Mtr_02850 278 1971 277 2372 tp L=1U W=19U AS=38P AD=38P PS=42U PD=42U 
Mtr_02849 2372 2346 281 2372 tp L=1U W=3U AS=6P AD=6P PS=10U PD=10U 
Mtr_02848 283 1977 2372 2372 tp L=1U W=4U AS=8P AD=8P PS=12U PD=12U 
Mtr_02847 2372 284 530 2372 tp L=1U W=45U AS=90P AD=90P PS=94U PD=94U 
Mtr_02846 531 285 2372 2372 tp L=1U W=45U AS=90P AD=90P PS=94U PD=94U 
Mtr_02845 531 285 2372 2372 tp L=1U W=46U AS=92P AD=92P PS=96U PD=96U 
Mtr_02844 2372 530 284 2372 tp L=2U W=2U AS=4P AD=4P PS=8U PD=8U 
Mtr_02843 285 531 2372 2372 tp L=2U W=2U AS=4P AD=4P PS=8U PD=8U 
Mtr_02842 2372 1977 284 2372 tp L=1U W=11U AS=22P AD=22P PS=26U PD=26U 
Mtr_02841 285 1977 2372 2372 tp L=1U W=11U AS=22P AD=22P PS=26U PD=26U 
Mtr_02840 2372 286 529 2372 tp L=1U W=46U AS=92P AD=92P PS=96U PD=96U 
Mtr_02839 528 287 2372 2372 tp L=1U W=46U AS=92P AD=92P PS=96U PD=96U 
Mtr_02838 2372 286 529 2372 tp L=1U W=45U AS=90P AD=90P PS=94U PD=94U 
Mtr_02837 528 287 2372 2372 tp L=1U W=45U AS=90P AD=90P PS=94U PD=94U 
Mtr_02836 2372 1977 286 2372 tp L=1U W=11U AS=22P AD=22P PS=26U PD=26U 
Mtr_02835 287 1977 2372 2372 tp L=1U W=11U AS=22P AD=22P PS=26U PD=26U 
Mtr_02834 287 528 2372 2372 tp L=2U W=2U AS=4P AD=4P PS=8U PD=8U 
Mtr_02833 2372 529 286 2372 tp L=2U W=2U AS=4P AD=4P PS=8U PD=8U 
Mtr_02832 2372 284 530 2372 tp L=1U W=46U AS=92P AD=92P PS=96U PD=96U 
Mtr_02831 753 2342 2372 2372 tp L=1U W=3U AS=6P AD=6P PS=10U PD=10U 
Mtr_02830 2372 753 549 2372 tp L=1U W=19U AS=38P AD=38P PS=42U PD=42U 
Mtr_02829 753 2345 2372 2372 tp L=1U W=3U AS=6P AD=6P PS=10U PD=10U 
Mtr_02828 548 2375 754 2372 tp L=1U W=19U AS=38P AD=38P PS=42U PD=42U 
Mtr_02827 549 1971 548 2372 tp L=1U W=19U AS=38P AD=38P PS=42U PD=42U 
Mtr_02826 2372 2349 753 2372 tp L=1U W=3U AS=6P AD=6P PS=10U PD=10U 
Mtr_02825 755 1977 2372 2372 tp L=1U W=4U AS=8P AD=8P PS=12U PD=12U 
Mtr_02824 2372 552 736 2372 tp L=1U W=45U AS=90P AD=90P PS=94U PD=94U 
Mtr_02823 737 553 2372 2372 tp L=1U W=45U AS=90P AD=90P PS=94U PD=94U 
Mtr_02822 737 553 2372 2372 tp L=1U W=46U AS=92P AD=92P PS=96U PD=96U 
Mtr_02821 2372 736 552 2372 tp L=2U W=2U AS=4P AD=4P PS=8U PD=8U 
Mtr_02820 553 737 2372 2372 tp L=2U W=2U AS=4P AD=4P PS=8U PD=8U 
Mtr_02819 2372 1977 552 2372 tp L=1U W=11U AS=22P AD=22P PS=26U PD=26U 
Mtr_02818 553 1977 2372 2372 tp L=1U W=11U AS=22P AD=22P PS=26U PD=26U 
Mtr_02817 2372 554 735 2372 tp L=1U W=46U AS=92P AD=92P PS=96U PD=96U 
Mtr_02816 983 756 2372 2372 tp L=1U W=46U AS=92P AD=92P PS=96U PD=96U 
Mtr_02815 2372 554 735 2372 tp L=1U W=45U AS=90P AD=90P PS=94U PD=94U 
Mtr_02814 983 756 2372 2372 tp L=1U W=45U AS=90P AD=90P PS=94U PD=94U 
Mtr_02813 2372 1977 554 2372 tp L=1U W=11U AS=22P AD=22P PS=26U PD=26U 
Mtr_02812 756 1977 2372 2372 tp L=1U W=11U AS=22P AD=22P PS=26U PD=26U 
Mtr_02811 756 983 2372 2372 tp L=2U W=2U AS=4P AD=4P PS=8U PD=8U 
Mtr_02810 2372 735 554 2372 tp L=2U W=2U AS=4P AD=4P PS=8U PD=8U 
Mtr_02809 2372 552 736 2372 tp L=1U W=46U AS=92P AD=92P PS=96U PD=96U 
Mtr_02808 1021 2342 2372 2372 tp L=1U W=3U AS=6P AD=6P PS=10U PD=10U 
Mtr_02807 2372 1021 751 2372 tp L=1U W=19U AS=38P AD=38P PS=42U PD=42U 
Mtr_02806 1021 2348 2372 2372 tp L=1U W=3U AS=6P AD=6P PS=10U PD=10U 
Mtr_02805 750 2375 1023 2372 tp L=1U W=19U AS=38P AD=38P PS=42U PD=42U 
Mtr_02804 751 1971 750 2372 tp L=1U W=19U AS=38P AD=38P PS=42U PD=42U 
Mtr_02803 2372 2349 1021 2372 tp L=1U W=3U AS=6P AD=6P PS=10U PD=10U 
Mtr_02802 1024 1977 2372 2372 tp L=1U W=4U AS=8P AD=8P PS=12U PD=12U 
Mtr_02801 2372 757 1002 2372 tp L=1U W=45U AS=90P AD=90P PS=94U PD=94U 
Mtr_02800 1001 758 2372 2372 tp L=1U W=45U AS=90P AD=90P PS=94U PD=94U 
Mtr_02799 1001 758 2372 2372 tp L=1U W=46U AS=92P AD=92P PS=96U PD=96U 
Mtr_02798 2372 1002 757 2372 tp L=2U W=2U AS=4P AD=4P PS=8U PD=8U 
Mtr_02797 758 1001 2372 2372 tp L=2U W=2U AS=4P AD=4P PS=8U PD=8U 
Mtr_02796 2372 1977 757 2372 tp L=1U W=11U AS=22P AD=22P PS=26U PD=26U 
Mtr_02795 758 1977 2372 2372 tp L=1U W=11U AS=22P AD=22P PS=26U PD=26U 
Mtr_02794 2372 1025 1000 2372 tp L=1U W=46U AS=92P AD=92P PS=96U PD=96U 
Mtr_02793 1210 1026 2372 2372 tp L=1U W=46U AS=92P AD=92P PS=96U PD=96U 
Mtr_02792 2372 1025 1000 2372 tp L=1U W=45U AS=90P AD=90P PS=94U PD=94U 
Mtr_02791 1210 1026 2372 2372 tp L=1U W=45U AS=90P AD=90P PS=94U PD=94U 
Mtr_02790 2372 1977 1025 2372 tp L=1U W=11U AS=22P AD=22P PS=26U PD=26U 
Mtr_02789 1026 1977 2372 2372 tp L=1U W=11U AS=22P AD=22P PS=26U PD=26U 
Mtr_02788 1026 1210 2372 2372 tp L=2U W=2U AS=4P AD=4P PS=8U PD=8U 
Mtr_02787 2372 1000 1025 2372 tp L=2U W=2U AS=4P AD=4P PS=8U PD=8U 
Mtr_02786 2372 757 1002 2372 tp L=1U W=46U AS=92P AD=92P PS=96U PD=96U 
Mtr_02785 1226 2343 2372 2372 tp L=1U W=3U AS=6P AD=6P PS=10U PD=10U 
Mtr_02784 2372 1226 1020 2372 tp L=1U W=19U AS=38P AD=38P PS=42U PD=42U 
Mtr_02783 1226 2345 2372 2372 tp L=1U W=3U AS=6P AD=6P PS=10U PD=10U 
Mtr_02782 1019 2375 1229 2372 tp L=1U W=19U AS=38P AD=38P PS=42U PD=42U 
Mtr_02781 1020 1971 1019 2372 tp L=1U W=19U AS=38P AD=38P PS=42U PD=42U 
Mtr_02780 2372 2346 1226 2372 tp L=1U W=3U AS=6P AD=6P PS=10U PD=10U 
Mtr_02779 1230 1977 2372 2372 tp L=1U W=4U AS=8P AD=8P PS=12U PD=12U 
Mtr_02778 2372 1027 1209 2372 tp L=1U W=45U AS=90P AD=90P PS=94U PD=94U 
Mtr_02777 1211 1028 2372 2372 tp L=1U W=45U AS=90P AD=90P PS=94U PD=94U 
Mtr_02776 1211 1028 2372 2372 tp L=1U W=46U AS=92P AD=92P PS=96U PD=96U 
Mtr_02775 2372 1209 1027 2372 tp L=2U W=2U AS=4P AD=4P PS=8U PD=8U 
Mtr_02774 1028 1211 2372 2372 tp L=2U W=2U AS=4P AD=4P PS=8U PD=8U 
Mtr_02773 2372 1977 1027 2372 tp L=1U W=11U AS=22P AD=22P PS=26U PD=26U 
Mtr_02772 1028 1977 2372 2372 tp L=1U W=11U AS=22P AD=22P PS=26U PD=26U 
Mtr_02771 2372 1231 1475 2372 tp L=1U W=46U AS=92P AD=92P PS=96U PD=96U 
Mtr_02770 1478 1232 2372 2372 tp L=1U W=46U AS=92P AD=92P PS=96U PD=96U 
Mtr_02769 2372 1231 1475 2372 tp L=1U W=45U AS=90P AD=90P PS=94U PD=94U 
Mtr_02768 1478 1232 2372 2372 tp L=1U W=45U AS=90P AD=90P PS=94U PD=94U 
Mtr_02767 2372 1977 1231 2372 tp L=1U W=11U AS=22P AD=22P PS=26U PD=26U 
Mtr_02766 1232 1977 2372 2372 tp L=1U W=11U AS=22P AD=22P PS=26U PD=26U 
Mtr_02765 1232 1478 2372 2372 tp L=2U W=2U AS=4P AD=4P PS=8U PD=8U 
Mtr_02764 2372 1475 1231 2372 tp L=2U W=2U AS=4P AD=4P PS=8U PD=8U 
Mtr_02763 2372 1027 1209 2372 tp L=1U W=46U AS=92P AD=92P PS=96U PD=96U 
Mtr_02762 1497 2343 2372 2372 tp L=1U W=3U AS=6P AD=6P PS=10U PD=10U 
Mtr_02761 2372 1497 1224 2372 tp L=1U W=19U AS=38P AD=38P PS=42U PD=42U 
Mtr_02760 1497 2348 2372 2372 tp L=1U W=3U AS=6P AD=6P PS=10U PD=10U 
Mtr_02759 1225 2375 1500 2372 tp L=1U W=19U AS=38P AD=38P PS=42U PD=42U 
Mtr_02758 1224 1971 1225 2372 tp L=1U W=19U AS=38P AD=38P PS=42U PD=42U 
Mtr_02757 2372 2346 1497 2372 tp L=1U W=3U AS=6P AD=6P PS=10U PD=10U 
Mtr_02756 1501 1977 2372 2372 tp L=1U W=4U AS=8P AD=8P PS=12U PD=12U 
Mtr_02755 2372 1233 1477 2372 tp L=1U W=45U AS=90P AD=90P PS=94U PD=94U 
Mtr_02754 1476 1234 2372 2372 tp L=1U W=45U AS=90P AD=90P PS=94U PD=94U 
Mtr_02753 1476 1234 2372 2372 tp L=1U W=46U AS=92P AD=92P PS=96U PD=96U 
Mtr_02752 2372 1477 1233 2372 tp L=2U W=2U AS=4P AD=4P PS=8U PD=8U 
Mtr_02751 1234 1476 2372 2372 tp L=2U W=2U AS=4P AD=4P PS=8U PD=8U 
Mtr_02750 2372 1977 1233 2372 tp L=1U W=11U AS=22P AD=22P PS=26U PD=26U 
Mtr_02749 1234 1977 2372 2372 tp L=1U W=11U AS=22P AD=22P PS=26U PD=26U 
Mtr_02748 2372 1502 1687 2372 tp L=1U W=46U AS=92P AD=92P PS=96U PD=96U 
Mtr_02747 1686 1503 2372 2372 tp L=1U W=46U AS=92P AD=92P PS=96U PD=96U 
Mtr_02746 2372 1502 1687 2372 tp L=1U W=45U AS=90P AD=90P PS=94U PD=94U 
Mtr_02745 1686 1503 2372 2372 tp L=1U W=45U AS=90P AD=90P PS=94U PD=94U 
Mtr_02744 2372 1977 1502 2372 tp L=1U W=11U AS=22P AD=22P PS=26U PD=26U 
Mtr_02743 1503 1977 2372 2372 tp L=1U W=11U AS=22P AD=22P PS=26U PD=26U 
Mtr_02742 1503 1686 2372 2372 tp L=2U W=2U AS=4P AD=4P PS=8U PD=8U 
Mtr_02741 2372 1687 1502 2372 tp L=2U W=2U AS=4P AD=4P PS=8U PD=8U 
Mtr_02740 2372 1233 1477 2372 tp L=1U W=46U AS=92P AD=92P PS=96U PD=96U 
Mtr_02739 1700 2343 2372 2372 tp L=1U W=3U AS=6P AD=6P PS=10U PD=10U 
Mtr_02738 2372 1700 1495 2372 tp L=1U W=19U AS=38P AD=38P PS=42U PD=42U 
Mtr_02737 1700 2345 2372 2372 tp L=1U W=3U AS=6P AD=6P PS=10U PD=10U 
Mtr_02736 1496 2375 1703 2372 tp L=1U W=19U AS=38P AD=38P PS=42U PD=42U 
Mtr_02735 1495 1971 1496 2372 tp L=1U W=19U AS=38P AD=38P PS=42U PD=42U 
Mtr_02734 2372 2349 1700 2372 tp L=1U W=3U AS=6P AD=6P PS=10U PD=10U 
Mtr_02733 1704 1977 2372 2372 tp L=1U W=4U AS=8P AD=8P PS=12U PD=12U 
Mtr_02732 2372 1504 1685 2372 tp L=1U W=45U AS=90P AD=90P PS=94U PD=94U 
Mtr_02731 1933 1705 2372 2372 tp L=1U W=45U AS=90P AD=90P PS=94U PD=94U 
Mtr_02730 1933 1705 2372 2372 tp L=1U W=46U AS=92P AD=92P PS=96U PD=96U 
Mtr_02729 2372 1685 1504 2372 tp L=2U W=2U AS=4P AD=4P PS=8U PD=8U 
Mtr_02728 1705 1933 2372 2372 tp L=2U W=2U AS=4P AD=4P PS=8U PD=8U 
Mtr_02727 2372 1977 1504 2372 tp L=1U W=11U AS=22P AD=22P PS=26U PD=26U 
Mtr_02726 1705 1977 2372 2372 tp L=1U W=11U AS=22P AD=22P PS=26U PD=26U 
Mtr_02725 2372 1706 1952 2372 tp L=1U W=46U AS=92P AD=92P PS=96U PD=96U 
Mtr_02724 1951 1707 2372 2372 tp L=1U W=46U AS=92P AD=92P PS=96U PD=96U 
Mtr_02723 2372 1706 1952 2372 tp L=1U W=45U AS=90P AD=90P PS=94U PD=94U 
Mtr_02722 1951 1707 2372 2372 tp L=1U W=45U AS=90P AD=90P PS=94U PD=94U 
Mtr_02721 2372 1977 1706 2372 tp L=1U W=11U AS=22P AD=22P PS=26U PD=26U 
Mtr_02720 1707 1977 2372 2372 tp L=1U W=11U AS=22P AD=22P PS=26U PD=26U 
Mtr_02719 1707 1951 2372 2372 tp L=2U W=2U AS=4P AD=4P PS=8U PD=8U 
Mtr_02718 2372 1952 1706 2372 tp L=2U W=2U AS=4P AD=4P PS=8U PD=8U 
Mtr_02717 2372 1504 1685 2372 tp L=1U W=46U AS=92P AD=92P PS=96U PD=96U 
Mtr_02716 1974 2343 2372 2372 tp L=1U W=3U AS=6P AD=6P PS=10U PD=10U 
Mtr_02715 2372 1974 1970 2372 tp L=1U W=19U AS=38P AD=38P PS=42U PD=42U 
Mtr_02714 1974 2348 2372 2372 tp L=1U W=3U AS=6P AD=6P PS=10U PD=10U 
Mtr_02713 1969 2375 1975 2372 tp L=1U W=19U AS=38P AD=38P PS=42U PD=42U 
Mtr_02712 1970 1971 1969 2372 tp L=1U W=19U AS=38P AD=38P PS=42U PD=42U 
Mtr_02711 2372 2349 1974 2372 tp L=1U W=3U AS=6P AD=6P PS=10U PD=10U 
Mtr_02710 1976 1977 2372 2372 tp L=1U W=4U AS=8P AD=8P PS=12U PD=12U 
Mtr_02709 2372 1708 1950 2372 tp L=1U W=45U AS=90P AD=90P PS=94U PD=94U 
Mtr_02708 2162 1978 2372 2372 tp L=1U W=45U AS=90P AD=90P PS=94U PD=94U 
Mtr_02707 2162 1978 2372 2372 tp L=1U W=46U AS=92P AD=92P PS=96U PD=96U 
Mtr_02706 2372 1950 1708 2372 tp L=2U W=2U AS=4P AD=4P PS=8U PD=8U 
Mtr_02705 1978 2162 2372 2372 tp L=2U W=2U AS=4P AD=4P PS=8U PD=8U 
Mtr_02704 2372 1977 1708 2372 tp L=1U W=11U AS=22P AD=22P PS=26U PD=26U 
Mtr_02703 1978 1977 2372 2372 tp L=1U W=11U AS=22P AD=22P PS=26U PD=26U 
Mtr_02702 2372 1979 2161 2372 tp L=1U W=46U AS=92P AD=92P PS=96U PD=96U 
Mtr_02701 2163 1980 2372 2372 tp L=1U W=46U AS=92P AD=92P PS=96U PD=96U 
Mtr_02700 2372 1979 2161 2372 tp L=1U W=45U AS=90P AD=90P PS=94U PD=94U 
Mtr_02699 2163 1980 2372 2372 tp L=1U W=45U AS=90P AD=90P PS=94U PD=94U 
Mtr_02698 2372 1977 1979 2372 tp L=1U W=11U AS=22P AD=22P PS=26U PD=26U 
Mtr_02697 1980 1977 2372 2372 tp L=1U W=11U AS=22P AD=22P PS=26U PD=26U 
Mtr_02696 1980 2163 2372 2372 tp L=2U W=2U AS=4P AD=4P PS=8U PD=8U 
Mtr_02695 2372 2161 1979 2372 tp L=2U W=2U AS=4P AD=4P PS=8U PD=8U 
Mtr_02694 2372 1708 1950 2372 tp L=1U W=46U AS=92P AD=92P PS=96U PD=96U 
Mtr_02693 2268 2258 2372 2372 tp L=1U W=14U AS=28P AD=28P PS=32U PD=32U 
Mtr_02692 2372 2260 2177 2372 tp L=1U W=13U AS=26P AD=26P PS=30U PD=30U 
Mtr_02691 2177 2260 2372 2372 tp L=1U W=13U AS=26P AD=26P PS=30U PD=30U 
Mtr_02690 2260 2344 2372 2372 tp L=1U W=6U AS=12P AD=12P PS=16U PD=16U 
Mtr_02689 2372 2352 2260 2372 tp L=1U W=6U AS=12P AD=12P PS=16U PD=16U 
Mtr_02688 2372 2261 2176 2372 tp L=1U W=13U AS=26P AD=26P PS=30U PD=30U 
Mtr_02687 2176 2261 2372 2372 tp L=1U W=13U AS=26P AD=26P PS=30U PD=30U 
Mtr_02686 2372 2344 2261 2372 tp L=1U W=6U AS=12P AD=12P PS=16U PD=16U 
Mtr_02685 2261 2355 2372 2372 tp L=1U W=6U AS=12P AD=12P PS=16U PD=16U 
Mtr_02684 2372 2265 2178 2372 tp L=1U W=13U AS=26P AD=26P PS=30U PD=30U 
Mtr_02683 2178 2265 2372 2372 tp L=1U W=13U AS=26P AD=26P PS=30U PD=30U 
Mtr_02682 2265 2347 2372 2372 tp L=1U W=6U AS=12P AD=12P PS=16U PD=16U 
Mtr_02681 2372 2352 2265 2372 tp L=1U W=6U AS=12P AD=12P PS=16U PD=16U 
Mtr_02680 2372 2266 2179 2372 tp L=1U W=13U AS=26P AD=26P PS=30U PD=30U 
Mtr_02679 2179 2266 2372 2372 tp L=1U W=13U AS=26P AD=26P PS=30U PD=30U 
Mtr_02678 2372 2347 2266 2372 tp L=1U W=6U AS=12P AD=12P PS=16U PD=16U 
Mtr_02677 2266 2355 2372 2372 tp L=1U W=6U AS=12P AD=12P PS=16U PD=16U 
Mtr_02676 2372 2268 2180 2372 tp L=1U W=10U AS=20P AD=20P PS=24U PD=24U 
Mtr_02675 2286 2180 2372 2372 tp L=1U W=10U AS=20P AD=20P PS=24U PD=24U 
Mtr_02674 2372 2180 2286 2372 tp L=1U W=10U AS=20P AD=20P PS=24U PD=24U 
Mtr_02673 2286 2180 2372 2372 tp L=1U W=10U AS=20P AD=20P PS=24U PD=24U 
Mtr_02672 2372 2180 2286 2372 tp L=1U W=10U AS=20P AD=20P PS=24U PD=24U 
Mtr_02671 2372 2190 2253 2372 tp L=1U W=34U AS=68P AD=68P PS=72U PD=72U 
Mtr_02670 2252 2189 2372 2372 tp L=1U W=34U AS=68P AD=68P PS=72U PD=72U 
Mtr_02669 2372 2268 2189 2372 tp L=1U W=7U AS=14P AD=14P PS=18U PD=18U 
Mtr_02668 2189 2357 2372 2372 tp L=1U W=7U AS=14P AD=14P PS=18U PD=18U 
Mtr_02667 2372 2350 2189 2372 tp L=1U W=7U AS=14P AD=14P PS=18U PD=18U 
Mtr_02666 2190 2356 2372 2372 tp L=1U W=7U AS=14P AD=14P PS=18U PD=18U 
Mtr_02665 2372 2350 2190 2372 tp L=1U W=7U AS=14P AD=14P PS=18U PD=18U 
Mtr_02664 2372 2268 2190 2372 tp L=1U W=7U AS=14P AD=14P PS=18U PD=18U 
Mtr_02663 2372 2267 2251 2372 tp L=1U W=34U AS=68P AD=68P PS=72U PD=72U 
Mtr_02662 2270 2269 2372 2372 tp L=1U W=34U AS=68P AD=68P PS=72U PD=72U 
Mtr_02661 2267 2268 2372 2372 tp L=1U W=7U AS=14P AD=14P PS=18U PD=18U 
Mtr_02660 2267 2356 2372 2372 tp L=1U W=7U AS=14P AD=14P PS=18U PD=18U 
Mtr_02659 2269 2268 2372 2372 tp L=1U W=7U AS=14P AD=14P PS=18U PD=18U 
Mtr_02658 2372 2353 2269 2372 tp L=1U W=7U AS=14P AD=14P PS=18U PD=18U 
Mtr_02657 2269 2357 2372 2372 tp L=1U W=7U AS=14P AD=14P PS=18U PD=18U 
Mtr_02656 2372 2353 2267 2372 tp L=1U W=7U AS=14P AD=14P PS=18U PD=18U 
Mtr_02655 2372 2354 2290 2372 tp L=1U W=6U AS=12P AD=12P PS=16U PD=16U 
Mtr_02654 2290 2268 2372 2372 tp L=1U W=6U AS=12P AD=12P PS=16U PD=16U 
Mtr_02653 2372 2351 2291 2372 tp L=1U W=6U AS=12P AD=12P PS=16U PD=16U 
Mtr_02652 2291 2268 2372 2372 tp L=1U W=6U AS=12P AD=12P PS=16U PD=16U 
Mtr_02651 2330 2290 2372 2372 tp L=1U W=34U AS=68P AD=68P PS=72U PD=72U 
Mtr_02650 2372 2291 2329 2372 tp L=1U W=34U AS=68P AD=68P PS=72U PD=72U 
Mtr_02649 2271 2292 2372 2372 tp L=4U W=2U AS=4P AD=4P PS=8U PD=8U 
Mtr_02648 2372 2286 2271 2372 tp L=1U W=3U AS=6P AD=6P PS=10U PD=10U 
Mtr_02647 2372 2271 2292 2372 tp L=1U W=8U AS=16P AD=16P PS=20U PD=20U 
Mtr_02646 2272 2294 2372 2372 tp L=4U W=2U AS=4P AD=4P PS=8U PD=8U 
Mtr_02645 2372 2286 2272 2372 tp L=1U W=3U AS=6P AD=6P PS=10U PD=10U 
Mtr_02644 2372 2272 2294 2372 tp L=1U W=8U AS=16P AD=16P PS=20U PD=20U 
Mtr_02643 2273 2297 2372 2372 tp L=4U W=2U AS=4P AD=4P PS=8U PD=8U 
Mtr_02642 2372 2286 2273 2372 tp L=1U W=3U AS=6P AD=6P PS=10U PD=10U 
Mtr_02641 2372 2273 2297 2372 tp L=1U W=8U AS=16P AD=16P PS=20U PD=20U 
Mtr_02640 2274 2298 2372 2372 tp L=4U W=2U AS=4P AD=4P PS=8U PD=8U 
Mtr_02639 2372 2286 2274 2372 tp L=1U W=3U AS=6P AD=6P PS=10U PD=10U 
Mtr_02638 2372 2274 2298 2372 tp L=1U W=8U AS=16P AD=16P PS=20U PD=20U 
Mtr_02637 2275 2302 2372 2372 tp L=4U W=2U AS=4P AD=4P PS=8U PD=8U 
Mtr_02636 2372 2286 2275 2372 tp L=1U W=3U AS=6P AD=6P PS=10U PD=10U 
Mtr_02635 2372 2275 2302 2372 tp L=1U W=8U AS=16P AD=16P PS=20U PD=20U 
Mtr_02634 2276 2305 2372 2372 tp L=4U W=2U AS=4P AD=4P PS=8U PD=8U 
Mtr_02633 2372 2286 2276 2372 tp L=1U W=3U AS=6P AD=6P PS=10U PD=10U 
Mtr_02632 2372 2276 2305 2372 tp L=1U W=8U AS=16P AD=16P PS=20U PD=20U 
Mtr_02631 2277 2307 2372 2372 tp L=4U W=2U AS=4P AD=4P PS=8U PD=8U 
Mtr_02630 2372 2286 2277 2372 tp L=1U W=3U AS=6P AD=6P PS=10U PD=10U 
Mtr_02629 2372 2277 2307 2372 tp L=1U W=8U AS=16P AD=16P PS=20U PD=20U 
Mtr_02628 2278 2309 2372 2372 tp L=4U W=2U AS=4P AD=4P PS=8U PD=8U 
Mtr_02627 2372 2286 2278 2372 tp L=1U W=3U AS=6P AD=6P PS=10U PD=10U 
Mtr_02626 2372 2278 2309 2372 tp L=1U W=8U AS=16P AD=16P PS=20U PD=20U 
Mtr_02625 2279 2308 2372 2372 tp L=4U W=2U AS=4P AD=4P PS=8U PD=8U 
Mtr_02624 2372 2286 2279 2372 tp L=1U W=3U AS=6P AD=6P PS=10U PD=10U 
Mtr_02623 2372 2279 2308 2372 tp L=1U W=8U AS=16P AD=16P PS=20U PD=20U 
Mtr_02622 2280 2314 2372 2372 tp L=4U W=2U AS=4P AD=4P PS=8U PD=8U 
Mtr_02621 2372 2286 2280 2372 tp L=1U W=3U AS=6P AD=6P PS=10U PD=10U 
Mtr_02620 2372 2280 2314 2372 tp L=1U W=8U AS=16P AD=16P PS=20U PD=20U 
Mtr_02619 2281 2317 2372 2372 tp L=4U W=2U AS=4P AD=4P PS=8U PD=8U 
Mtr_02618 2372 2286 2281 2372 tp L=1U W=3U AS=6P AD=6P PS=10U PD=10U 
Mtr_02617 2372 2281 2317 2372 tp L=1U W=8U AS=16P AD=16P PS=20U PD=20U 
Mtr_02616 2282 2318 2372 2372 tp L=4U W=2U AS=4P AD=4P PS=8U PD=8U 
Mtr_02615 2372 2286 2282 2372 tp L=1U W=3U AS=6P AD=6P PS=10U PD=10U 
Mtr_02614 2372 2282 2318 2372 tp L=1U W=8U AS=16P AD=16P PS=20U PD=20U 
Mtr_02613 2283 2321 2372 2372 tp L=4U W=2U AS=4P AD=4P PS=8U PD=8U 
Mtr_02612 2372 2286 2283 2372 tp L=1U W=3U AS=6P AD=6P PS=10U PD=10U 
Mtr_02611 2372 2283 2321 2372 tp L=1U W=8U AS=16P AD=16P PS=20U PD=20U 
Mtr_02610 2284 2325 2372 2372 tp L=4U W=2U AS=4P AD=4P PS=8U PD=8U 
Mtr_02609 2372 2286 2284 2372 tp L=1U W=3U AS=6P AD=6P PS=10U PD=10U 
Mtr_02608 2372 2284 2325 2372 tp L=1U W=8U AS=16P AD=16P PS=20U PD=20U 
Mtr_02607 2285 2327 2372 2372 tp L=4U W=2U AS=4P AD=4P PS=8U PD=8U 
Mtr_02606 2372 2286 2285 2372 tp L=1U W=3U AS=6P AD=6P PS=10U PD=10U 
Mtr_02605 2372 2285 2327 2372 tp L=1U W=8U AS=16P AD=16P PS=20U PD=20U 
Mtr_02604 2287 2328 2372 2372 tp L=4U W=2U AS=4P AD=4P PS=8U PD=8U 
Mtr_02603 2372 2286 2287 2372 tp L=1U W=3U AS=6P AD=6P PS=10U PD=10U 
Mtr_02602 2372 2287 2328 2372 tp L=1U W=8U AS=16P AD=16P PS=20U PD=20U 
Mtr_02601 2372 2342 2343 2372 tp L=1U W=3U AS=6P AD=6P PS=10U PD=10U 
Mtr_02600 2343 2342 2372 2372 tp L=1U W=3U AS=6P AD=6P PS=10U PD=10U 
Mtr_02599 2343 2342 2372 2372 tp L=1U W=3U AS=6P AD=6P PS=10U PD=10U 
Mtr_02598 2372 2342 2343 2372 tp L=1U W=3U AS=6P AD=6P PS=10U PD=10U 
Mtr_02597 2343 2342 2372 2372 tp L=1U W=3U AS=6P AD=6P PS=10U PD=10U 
Mtr_02596 2343 2342 2372 2372 tp L=1U W=3U AS=6P AD=6P PS=10U PD=10U 
Mtr_02595 2372 2346 2349 2372 tp L=1U W=3U AS=6P AD=6P PS=10U PD=10U 
Mtr_02594 2349 2346 2372 2372 tp L=1U W=3U AS=6P AD=6P PS=10U PD=10U 
Mtr_02593 2349 2346 2372 2372 tp L=1U W=3U AS=6P AD=6P PS=10U PD=10U 
Mtr_02592 2372 2346 2349 2372 tp L=1U W=3U AS=6P AD=6P PS=10U PD=10U 
Mtr_02591 2349 2346 2372 2372 tp L=1U W=3U AS=6P AD=6P PS=10U PD=10U 
Mtr_02590 2349 2346 2372 2372 tp L=1U W=3U AS=6P AD=6P PS=10U PD=10U 
Mtr_02589 2372 2345 2348 2372 tp L=1U W=3U AS=6P AD=6P PS=10U PD=10U 
Mtr_02588 2348 2345 2372 2372 tp L=1U W=3U AS=6P AD=6P PS=10U PD=10U 
Mtr_02587 2348 2345 2372 2372 tp L=1U W=3U AS=6P AD=6P PS=10U PD=10U 
Mtr_02586 2372 2345 2348 2372 tp L=1U W=3U AS=6P AD=6P PS=10U PD=10U 
Mtr_02585 2348 2345 2372 2372 tp L=1U W=3U AS=6P AD=6P PS=10U PD=10U 
Mtr_02584 2348 2345 2372 2372 tp L=1U W=3U AS=6P AD=6P PS=10U PD=10U 
Mtr_02583 2372 2344 2347 2372 tp L=1U W=3U AS=6P AD=6P PS=10U PD=10U 
Mtr_02582 2347 2344 2372 2372 tp L=1U W=3U AS=6P AD=6P PS=10U PD=10U 
Mtr_02581 2347 2344 2372 2372 tp L=1U W=3U AS=6P AD=6P PS=10U PD=10U 
Mtr_02580 2372 2344 2347 2372 tp L=1U W=3U AS=6P AD=6P PS=10U PD=10U 
Mtr_02579 2347 2344 2372 2372 tp L=1U W=3U AS=6P AD=6P PS=10U PD=10U 
Mtr_02578 2347 2344 2372 2372 tp L=1U W=3U AS=6P AD=6P PS=10U PD=10U 
Mtr_02577 2372 2352 2355 2372 tp L=1U W=3U AS=6P AD=6P PS=10U PD=10U 
Mtr_02576 2355 2352 2372 2372 tp L=1U W=3U AS=6P AD=6P PS=10U PD=10U 
Mtr_02575 2355 2352 2372 2372 tp L=1U W=3U AS=6P AD=6P PS=10U PD=10U 
Mtr_02574 2372 2352 2355 2372 tp L=1U W=3U AS=6P AD=6P PS=10U PD=10U 
Mtr_02573 2355 2352 2372 2372 tp L=1U W=3U AS=6P AD=6P PS=10U PD=10U 
Mtr_02572 2355 2352 2372 2372 tp L=1U W=3U AS=6P AD=6P PS=10U PD=10U 
Mtr_02571 2372 2351 2354 2372 tp L=1U W=3U AS=6P AD=6P PS=10U PD=10U 
Mtr_02570 2354 2351 2372 2372 tp L=1U W=3U AS=6P AD=6P PS=10U PD=10U 
Mtr_02569 2354 2351 2372 2372 tp L=1U W=3U AS=6P AD=6P PS=10U PD=10U 
Mtr_02568 2372 2351 2354 2372 tp L=1U W=3U AS=6P AD=6P PS=10U PD=10U 
Mtr_02567 2354 2351 2372 2372 tp L=1U W=3U AS=6P AD=6P PS=10U PD=10U 
Mtr_02566 2354 2351 2372 2372 tp L=1U W=3U AS=6P AD=6P PS=10U PD=10U 
Mtr_02565 2372 2350 2353 2372 tp L=1U W=3U AS=6P AD=6P PS=10U PD=10U 
Mtr_02564 2353 2350 2372 2372 tp L=1U W=3U AS=6P AD=6P PS=10U PD=10U 
Mtr_02563 2353 2350 2372 2372 tp L=1U W=3U AS=6P AD=6P PS=10U PD=10U 
Mtr_02562 2372 2350 2353 2372 tp L=1U W=3U AS=6P AD=6P PS=10U PD=10U 
Mtr_02561 2353 2350 2372 2372 tp L=1U W=3U AS=6P AD=6P PS=10U PD=10U 
Mtr_02560 2353 2350 2372 2372 tp L=1U W=3U AS=6P AD=6P PS=10U PD=10U 
Mtr_02559 2372 2356 2357 2372 tp L=1U W=3U AS=6P AD=6P PS=10U PD=10U 
Mtr_02558 2357 2356 2372 2372 tp L=1U W=3U AS=6P AD=6P PS=10U PD=10U 
Mtr_02557 2357 2356 2372 2372 tp L=1U W=3U AS=6P AD=6P PS=10U PD=10U 
Mtr_02556 2372 2356 2357 2372 tp L=1U W=3U AS=6P AD=6P PS=10U PD=10U 
Mtr_02555 2357 2356 2372 2372 tp L=1U W=3U AS=6P AD=6P PS=10U PD=10U 
Mtr_02554 2357 2356 2372 2372 tp L=1U W=3U AS=6P AD=6P PS=10U PD=10U 
Mtr_02553 2296 2286 2372 2372 tp L=1U W=3U AS=6P AD=6P PS=10U PD=10U 
Mtr_02552 2296 2334 2372 2372 tp L=3U W=2U AS=4P AD=4P PS=8U PD=8U 
Mtr_02551 2334 2296 2372 2372 tp L=1U W=9U AS=18P AD=18P PS=22U PD=22U 
Mtr_02550 2372 2296 2334 2372 tp L=1U W=4U AS=8P AD=8P PS=12U PD=12U 
Mtr_02549 2372 2358 2359 2372 tp L=1U W=9U AS=18P AD=18P PS=22U PD=22U 
Mtr_02548 2359 2358 2372 2372 tp L=1U W=5U AS=10P AD=10P PS=14U PD=14U 
Mtr_02547 2372 2358 2359 2372 tp L=1U W=5U AS=10P AD=10P PS=14U PD=14U 
Mtr_02546 2372 2358 2359 2372 tp L=1U W=9U AS=18P AD=18P PS=22U PD=22U 
Mtr_02545 2359 2358 2372 2372 tp L=1U W=5U AS=10P AD=10P PS=14U PD=14U 
Mtr_02544 2372 2358 2359 2372 tp L=1U W=5U AS=10P AD=10P PS=14U PD=14U 
Mtr_02543 2372 2334 2358 2372 tp L=1U W=14U AS=28P AD=28P PS=32U PD=32U 