* Spice description of r256x8_1
* Spice driver version 700
* Date ( dd/mm/yyyy hh:mm:ss ): 20/09/2002 at 16:20:42

* INTERF adr[0] adr[1] adr[2] adr[3] adr[4] adr[5] adr[6] adr[7] ck[0] ck[1] 
* INTERF f[0] f[1] f[2] f[3] f[4] f[5] f[6] f[7] vdd vss 


.subckt r256x8_1 1332 1326 1327 1328 1320 1321 1322 1318 1234 1 1350 1347 
+ 1345 1343 1341 1339 1337 1335 1348 1351 
* NET 1 = ck[1] 
* NET 5 = rl/7.w1 
* NET 18 = rbl4/1/2.e0 
* NET 19 = rck.ckp 
* NET 25 = rl/7.e1 
* NET 26 = rl/7.tr_p 
* NET 27 = rl/7.w2 
* NET 28 = rl/7.w3 
* NET 29 = rl/7.w4 
* NET 98 = rbl4/1/2.e1 
* NET 99 = rbl4/1/2.e2 
* NET 100 = rbl4/1/2.e3 
* NET 106 = rl/6.e1 
* NET 107 = rl/6.tr_p 
* NET 108 = rl/6.w1 
* NET 109 = rl/6.w2 
* NET 110 = rl/6.w3 
* NET 111 = rl/6.w4 
* NET 224 = rbl4/1/2.e7 
* NET 225 = rbl4/1/2.e6 
* NET 226 = umf.e31 
* NET 227 = rbl4/1/2.e5 
* NET 232 = rl/5.w1 
* NET 233 = rl/5.w2 
* NET 234 = rl/5.w3 
* NET 311 = rbl4/1/2.e10 
* NET 312 = rbl4/1/2.e8 
* NET 313 = rbl4/1/2.e9 
* NET 318 = rl/5.e1 
* NET 319 = rl/5.tr_p 
* NET 320 = rl/5.w4 
* NET 321 = rl/4.w1 
* NET 322 = rl/4.w2 
* NET 459 = rbl4/1/2.e11 
* NET 460 = rbl4/1/2.e14 
* NET 461 = rbl4/1/2.e13 
* NET 462 = rbl4/1/2.e12 
* NET 467 = rl/4.e1 
* NET 468 = rl/4.tr_p 
* NET 469 = rl/4.w3 
* NET 470 = rl/4.w4 
* NET 471 = rl/3.w1 
* NET 472 = rl/3.w2 
* NET 557 = umf.e0 
* NET 558 = rbl4/1/2.e15 
* NET 559 = umf.e1 
* NET 573 = rl/3.e1 
* NET 574 = rl/3.tr_p 
* NET 575 = rl/3.w3 
* NET 576 = rl/3.w4 
* NET 577 = rl/2.w1 
* NET 578 = rl/2.w2 
* NET 691 = umf.e2 
* NET 692 = umf.e5 
* NET 693 = umf.e4 
* NET 694 = umf.e3 
* NET 716 = rl/2.e1 
* NET 717 = rl/2.tr_p 
* NET 718 = rl/2.w3 
* NET 719 = rl/2.w4 
* NET 720 = rl/1.w1 
* NET 817 = umf.e8 
* NET 818 = umf.e7 
* NET 819 = umf.e6 
* NET 835 = rl/1.e1 
* NET 836 = rl/1.tr_p 
* NET 837 = rl/1.w2 
* NET 838 = rl/1.w3 
* NET 839 = rl/1.w4 
* NET 840 = rl/0.w1 
* NET 961 = umf.e9 
* NET 978 = umf.e12 
* NET 979 = umf.e11 
* NET 980 = umf.e10 
* NET 999 = rck.ck_02 
* NET 1003 = rl/0.e1 
* NET 1004 = rl/0.tr_p 
* NET 1005 = rck.ck_03 
* NET 1006 = rl/0.w2 
* NET 1007 = rl/0.w3 
* NET 1008 = rl/0.w4 
* NET 1137 = umf.e14 
* NET 1138 = umf.e13 
* NET 1139 = umf.e15 
* NET 1152 = rw2.n1 
* NET 1153 = rw3.n1 
* NET 1154 = rw1.n1 
* NET 1155 = rw0.n1 
* NET 1156 = rc116.n2 
* NET 1167 = rp4/15.s3 
* NET 1168 = rmx4/15.bl0_p 
* NET 1169 = rp4/14.s2 
* NET 1170 = rp4/14.s1 
* NET 1171 = rp4/15.s2 
* NET 1172 = rp4/15.s1 
* NET 1173 = rp4/14.s3 
* NET 1174 = rmx4/14.bl0_p 
* NET 1175 = rp4/13.s3 
* NET 1176 = rmx4/13.bl0_p 
* NET 1177 = rp4/12.s2 
* NET 1178 = rp4/13.s2 
* NET 1179 = rp4/12.s3 
* NET 1180 = rp4/12.s1 
* NET 1181 = rp4/13.s1 
* NET 1182 = rp4/11.s3 
* NET 1183 = rmx4/11.bl0_p 
* NET 1184 = rp4/11.s2 
* NET 1185 = rp4/11.s1 
* NET 1186 = rmx4/12.bl0_p 
* NET 1187 = rp4/10.s2 
* NET 1188 = rp4/10.s3 
* NET 1189 = rp4/10.s1 
* NET 1190 = rmx4/10.bl0_p 
* NET 1191 = rp4/9.s3 
* NET 1192 = rmx4/9.bl0_p 
* NET 1193 = rp4/9.s2 
* NET 1194 = rp4/9.s1 
* NET 1195 = rmx4/7.bl0_p 
* NET 1196 = rp4/7.s3 
* NET 1197 = rp4/8.s3 
* NET 1198 = rmx4/8.bl0_p 
* NET 1199 = rp4/8.s2 
* NET 1200 = rp4/8.s1 
* NET 1201 = rp4/6.s2 
* NET 1202 = rp4/6.s1 
* NET 1203 = rp4/7.s2 
* NET 1204 = rp4/7.s1 
* NET 1205 = rp4/5.s3 
* NET 1206 = rmx4/5.bl0_p 
* NET 1207 = rp4/6.s3 
* NET 1208 = rmx4/6.bl0_p 
* NET 1209 = rp4/4.s2 
* NET 1210 = rp4/4.s1 
* NET 1211 = rp4/5.s2 
* NET 1212 = rp4/5.s1 
* NET 1213 = rp4/3.s2 
* NET 1214 = rp4/3.s3 
* NET 1215 = rp4/3.s1 
* NET 1216 = rmx4/3.bl0_p 
* NET 1217 = rp4/4.s3 
* NET 1218 = rmx4/4.bl0_p 
* NET 1219 = rp4/2.s2 
* NET 1220 = rp4/2.s3 
* NET 1221 = rp4/2.s1 
* NET 1222 = rmx4/2.bl0_p 
* NET 1223 = rp4/1.s2 
* NET 1224 = rp4/1.s3 
* NET 1225 = rp4/1.s1 
* NET 1226 = rmx4/1.bl0_p 
* NET 1227 = x0.w2 
* NET 1228 = x0.w1 
* NET 1229 = x0.w0 
* NET 1230 = rp4/0.s2 
* NET 1231 = rp4/0.s3 
* NET 1232 = rp4/0.s1 
* NET 1233 = rmx4/0.bl0_p 
* NET 1234 = ck[0] 
* NET 1241 = rw1.inv 
* NET 1244 = x2.ck_11 
* NET 1246 = x1.w3 
* NET 1247 = rmx4/15.bit_p 
* NET 1248 = rmx4/14.bit_p 
* NET 1249 = rmx4/13.bit_p 
* NET 1250 = rmx4/12.bit_p 
* NET 1251 = rmx4/11.bit_p 
* NET 1252 = rmx4/10.bit_p 
* NET 1253 = rmx4/9.bit_p 
* NET 1254 = rmx4/8.bit_p 
* NET 1255 = rmx4/7.bit_p 
* NET 1256 = rmx4/6.bit_p 
* NET 1257 = rmx4/5.bit_p 
* NET 1258 = rmx4/4.bit_p 
* NET 1259 = rmx4/3.bit_p 
* NET 1260 = rmx4/2.bit_p 
* NET 1261 = rmx4/1.bit_p 
* NET 1262 = x1.ck_13 
* NET 1263 = rmx4/0.bit_p 
* NET 1266 = x2.n3b 
* NET 1268 = rmx2/7.i1 
* NET 1270 = rmx2/7.i0 
* NET 1272 = rmx2/7.s_p 
* NET 1276 = rmx2/6.s_p 
* NET 1278 = rmx2/5.i1 
* NET 1281 = rmx2/5.i0 
* NET 1282 = rmx2/5.s_p 
* NET 1284 = rmx2/3.i1 
* NET 1289 = rmx2/4.s_p 
* NET 1290 = rmx2/3.i0 
* NET 1292 = rmx2/3.s_p 
* NET 1297 = rmx2/1.i1 
* NET 1298 = rmx2/2.s_p 
* NET 1301 = rmx2/1.i0 
* NET 1302 = rmx2/1.s_p 
* NET 1305 = bf.e1 
* NET 1306 = bf.e0 
* NET 1308 = rmx2/0.s_p 
* NET 1318 = adr[7] 
* NET 1319 = rli/0.f 
* NET 1320 = adr[4] 
* NET 1321 = adr[5] 
* NET 1322 = adr[6] 
* NET 1323 = rw3.e1 
* NET 1324 = rli/2.f 
* NET 1325 = rli/1.f 
* NET 1326 = adr[1] 
* NET 1327 = adr[2] 
* NET 1328 = adr[3] 
* NET 1329 = x1.s5 
* NET 1330 = x2.s0 
* NET 1331 = rw3.e3 
* NET 1332 = adr[0] 
* NET 1333 = x0.s7 
* NET 1334 = rob/7.vss1 
* NET 1335 = f[7] 
* NET 1336 = rob/6.vss1 
* NET 1337 = f[6] 
* NET 1338 = rob/5.vss1 
* NET 1339 = f[5] 
* NET 1340 = rob/4.vss1 
* NET 1341 = f[4] 
* NET 1342 = rob/3.vss1 
* NET 1343 = f[3] 
* NET 1344 = rob/2.vss1 
* NET 1345 = f[2] 
* NET 1346 = rob/1.vss1 
* NET 1347 = f[1] 
* NET 1348 = vdd 
* NET 1349 = rob/0.vss1 
* NET 1350 = f[0] 
* NET 1351 = vss 
Mtr_02885 2 1 1348 1348 tp L=1U W=14U AS=28P AD=28P PS=32U PD=32U 
Mtr_02884 999 2 1348 1348 tp L=1U W=10U AS=20P AD=20P PS=24U PD=24U 
Mtr_02883 1348 2 999 1348 tp L=1U W=10U AS=20P AD=20P PS=24U PD=24U 
Mtr_02882 999 2 1348 1348 tp L=1U W=7U AS=14P AD=14P PS=18U PD=18U 
Mtr_02881 1348 999 1005 1348 tp L=1U W=36U AS=72P AD=72P PS=76U PD=76U 
Mtr_02880 1348 1005 3 1348 tp L=1U W=11U AS=22P AD=22P PS=26U PD=26U 
Mtr_02879 1348 3 4 1348 tp L=1U W=14U AS=28P AD=28P PS=32U PD=32U 
Mtr_02878 19 4 1348 1348 tp L=1U W=54U AS=108P AD=108P PS=112U PD=112U 
Mtr_02877 23 1318 1348 1348 tp L=1U W=3U AS=6P AD=6P PS=10U PD=10U 
Mtr_02876 1348 23 21 1348 tp L=1U W=19U AS=38P AD=38P PS=42U PD=42U 
Mtr_02875 23 1321 1348 1348 tp L=1U W=3U AS=6P AD=6P PS=10U PD=10U 
Mtr_02874 20 1351 25 1348 tp L=1U W=19U AS=38P AD=38P PS=42U PD=42U 
Mtr_02873 21 999 20 1348 tp L=1U W=19U AS=38P AD=38P PS=42U PD=42U 
Mtr_02872 1348 1322 23 1348 tp L=1U W=3U AS=6P AD=6P PS=10U PD=10U 
Mtr_02871 26 1005 1348 1348 tp L=1U W=4U AS=8P AD=8P PS=12U PD=12U 
Mtr_02870 1348 5 18 1348 tp L=1U W=45U AS=90P AD=90P PS=94U PD=94U 
Mtr_02869 98 27 1348 1348 tp L=1U W=45U AS=90P AD=90P PS=94U PD=94U 
Mtr_02868 98 27 1348 1348 tp L=1U W=46U AS=92P AD=92P PS=96U PD=96U 
Mtr_02867 1348 18 5 1348 tp L=2U W=2U AS=4P AD=4P PS=8U PD=8U 
Mtr_02866 27 98 1348 1348 tp L=2U W=2U AS=4P AD=4P PS=8U PD=8U 
Mtr_02865 1348 1005 5 1348 tp L=1U W=11U AS=22P AD=22P PS=26U PD=26U 
Mtr_02864 27 1005 1348 1348 tp L=1U W=11U AS=22P AD=22P PS=26U PD=26U 
Mtr_02863 1348 28 99 1348 tp L=1U W=46U AS=92P AD=92P PS=96U PD=96U 
Mtr_02862 100 29 1348 1348 tp L=1U W=46U AS=92P AD=92P PS=96U PD=96U 
Mtr_02861 1348 28 99 1348 tp L=1U W=45U AS=90P AD=90P PS=94U PD=94U 
Mtr_02860 100 29 1348 1348 tp L=1U W=45U AS=90P AD=90P PS=94U PD=94U 
Mtr_02859 1348 1005 28 1348 tp L=1U W=11U AS=22P AD=22P PS=26U PD=26U 
Mtr_02858 29 1005 1348 1348 tp L=1U W=11U AS=22P AD=22P PS=26U PD=26U 
Mtr_02857 29 100 1348 1348 tp L=2U W=2U AS=4P AD=4P PS=8U PD=8U 
Mtr_02856 1348 99 28 1348 tp L=2U W=2U AS=4P AD=4P PS=8U PD=8U 
Mtr_02855 1348 5 18 1348 tp L=1U W=46U AS=92P AD=92P PS=96U PD=96U 
Mtr_02854 105 1318 1348 1348 tp L=1U W=3U AS=6P AD=6P PS=10U PD=10U 
Mtr_02853 1348 105 102 1348 tp L=1U W=19U AS=38P AD=38P PS=42U PD=42U 
Mtr_02852 105 1324 1348 1348 tp L=1U W=3U AS=6P AD=6P PS=10U PD=10U 
Mtr_02851 101 1351 106 1348 tp L=1U W=19U AS=38P AD=38P PS=42U PD=42U 
Mtr_02850 102 999 101 1348 tp L=1U W=19U AS=38P AD=38P PS=42U PD=42U 
Mtr_02849 1348 1322 105 1348 tp L=1U W=3U AS=6P AD=6P PS=10U PD=10U 
Mtr_02848 107 1005 1348 1348 tp L=1U W=4U AS=8P AD=8P PS=12U PD=12U 
Mtr_02847 1348 108 226 1348 tp L=1U W=45U AS=90P AD=90P PS=94U PD=94U 
Mtr_02846 227 109 1348 1348 tp L=1U W=45U AS=90P AD=90P PS=94U PD=94U 
Mtr_02845 227 109 1348 1348 tp L=1U W=46U AS=92P AD=92P PS=96U PD=96U 
Mtr_02844 1348 226 108 1348 tp L=2U W=2U AS=4P AD=4P PS=8U PD=8U 
Mtr_02843 109 227 1348 1348 tp L=2U W=2U AS=4P AD=4P PS=8U PD=8U 
Mtr_02842 1348 1005 108 1348 tp L=1U W=11U AS=22P AD=22P PS=26U PD=26U 
Mtr_02841 109 1005 1348 1348 tp L=1U W=11U AS=22P AD=22P PS=26U PD=26U 
Mtr_02840 1348 110 225 1348 tp L=1U W=46U AS=92P AD=92P PS=96U PD=96U 
Mtr_02839 224 111 1348 1348 tp L=1U W=46U AS=92P AD=92P PS=96U PD=96U 
Mtr_02838 1348 110 225 1348 tp L=1U W=45U AS=90P AD=90P PS=94U PD=94U 
Mtr_02837 224 111 1348 1348 tp L=1U W=45U AS=90P AD=90P PS=94U PD=94U 
Mtr_02836 1348 1005 110 1348 tp L=1U W=11U AS=22P AD=22P PS=26U PD=26U 
Mtr_02835 111 1005 1348 1348 tp L=1U W=11U AS=22P AD=22P PS=26U PD=26U 
Mtr_02834 111 224 1348 1348 tp L=2U W=2U AS=4P AD=4P PS=8U PD=8U 
Mtr_02833 1348 225 110 1348 tp L=2U W=2U AS=4P AD=4P PS=8U PD=8U 
Mtr_02832 1348 108 226 1348 tp L=1U W=46U AS=92P AD=92P PS=96U PD=96U 
Mtr_02831 317 1318 1348 1348 tp L=1U W=3U AS=6P AD=6P PS=10U PD=10U 
Mtr_02830 1348 317 229 1348 tp L=1U W=19U AS=38P AD=38P PS=42U PD=42U 
Mtr_02829 317 1321 1348 1348 tp L=1U W=3U AS=6P AD=6P PS=10U PD=10U 
Mtr_02828 228 1351 318 1348 tp L=1U W=19U AS=38P AD=38P PS=42U PD=42U 
Mtr_02827 229 999 228 1348 tp L=1U W=19U AS=38P AD=38P PS=42U PD=42U 
Mtr_02826 1348 1325 317 1348 tp L=1U W=3U AS=6P AD=6P PS=10U PD=10U 
Mtr_02825 319 1005 1348 1348 tp L=1U W=4U AS=8P AD=8P PS=12U PD=12U 
Mtr_02824 1348 232 312 1348 tp L=1U W=45U AS=90P AD=90P PS=94U PD=94U 
Mtr_02823 313 233 1348 1348 tp L=1U W=45U AS=90P AD=90P PS=94U PD=94U 
Mtr_02822 313 233 1348 1348 tp L=1U W=46U AS=92P AD=92P PS=96U PD=96U 
Mtr_02821 1348 312 232 1348 tp L=2U W=2U AS=4P AD=4P PS=8U PD=8U 
Mtr_02820 233 313 1348 1348 tp L=2U W=2U AS=4P AD=4P PS=8U PD=8U 
Mtr_02819 1348 1005 232 1348 tp L=1U W=11U AS=22P AD=22P PS=26U PD=26U 
Mtr_02818 233 1005 1348 1348 tp L=1U W=11U AS=22P AD=22P PS=26U PD=26U 
Mtr_02817 1348 234 311 1348 tp L=1U W=46U AS=92P AD=92P PS=96U PD=96U 
Mtr_02816 459 320 1348 1348 tp L=1U W=46U AS=92P AD=92P PS=96U PD=96U 
Mtr_02815 1348 234 311 1348 tp L=1U W=45U AS=90P AD=90P PS=94U PD=94U 
Mtr_02814 459 320 1348 1348 tp L=1U W=45U AS=90P AD=90P PS=94U PD=94U 
Mtr_02813 1348 1005 234 1348 tp L=1U W=11U AS=22P AD=22P PS=26U PD=26U 
Mtr_02812 320 1005 1348 1348 tp L=1U W=11U AS=22P AD=22P PS=26U PD=26U 
Mtr_02811 320 459 1348 1348 tp L=2U W=2U AS=4P AD=4P PS=8U PD=8U 
Mtr_02810 1348 311 234 1348 tp L=2U W=2U AS=4P AD=4P PS=8U PD=8U 
Mtr_02809 1348 232 312 1348 tp L=1U W=46U AS=92P AD=92P PS=96U PD=96U 
Mtr_02808 465 1318 1348 1348 tp L=1U W=3U AS=6P AD=6P PS=10U PD=10U 
Mtr_02807 1348 465 315 1348 tp L=1U W=19U AS=38P AD=38P PS=42U PD=42U 
Mtr_02806 465 1324 1348 1348 tp L=1U W=3U AS=6P AD=6P PS=10U PD=10U 
Mtr_02805 314 1351 467 1348 tp L=1U W=19U AS=38P AD=38P PS=42U PD=42U 
Mtr_02804 315 999 314 1348 tp L=1U W=19U AS=38P AD=38P PS=42U PD=42U 
Mtr_02803 1348 1325 465 1348 tp L=1U W=3U AS=6P AD=6P PS=10U PD=10U 
Mtr_02802 468 1005 1348 1348 tp L=1U W=4U AS=8P AD=8P PS=12U PD=12U 
Mtr_02801 1348 321 462 1348 tp L=1U W=45U AS=90P AD=90P PS=94U PD=94U 
Mtr_02800 461 322 1348 1348 tp L=1U W=45U AS=90P AD=90P PS=94U PD=94U 
Mtr_02799 461 322 1348 1348 tp L=1U W=46U AS=92P AD=92P PS=96U PD=96U 
Mtr_02798 1348 462 321 1348 tp L=2U W=2U AS=4P AD=4P PS=8U PD=8U 
Mtr_02797 322 461 1348 1348 tp L=2U W=2U AS=4P AD=4P PS=8U PD=8U 
Mtr_02796 1348 1005 321 1348 tp L=1U W=11U AS=22P AD=22P PS=26U PD=26U 
Mtr_02795 322 1005 1348 1348 tp L=1U W=11U AS=22P AD=22P PS=26U PD=26U 
Mtr_02794 1348 469 460 1348 tp L=1U W=46U AS=92P AD=92P PS=96U PD=96U 
Mtr_02793 558 470 1348 1348 tp L=1U W=46U AS=92P AD=92P PS=96U PD=96U 
Mtr_02792 1348 469 460 1348 tp L=1U W=45U AS=90P AD=90P PS=94U PD=94U 
Mtr_02791 558 470 1348 1348 tp L=1U W=45U AS=90P AD=90P PS=94U PD=94U 
Mtr_02790 1348 1005 469 1348 tp L=1U W=11U AS=22P AD=22P PS=26U PD=26U 
Mtr_02789 470 1005 1348 1348 tp L=1U W=11U AS=22P AD=22P PS=26U PD=26U 
Mtr_02788 470 558 1348 1348 tp L=2U W=2U AS=4P AD=4P PS=8U PD=8U 
Mtr_02787 1348 460 469 1348 tp L=2U W=2U AS=4P AD=4P PS=8U PD=8U 
Mtr_02786 1348 321 462 1348 tp L=1U W=46U AS=92P AD=92P PS=96U PD=96U 
Mtr_02785 570 1319 1348 1348 tp L=1U W=3U AS=6P AD=6P PS=10U PD=10U 
Mtr_02784 1348 570 464 1348 tp L=1U W=19U AS=38P AD=38P PS=42U PD=42U 
Mtr_02783 570 1321 1348 1348 tp L=1U W=3U AS=6P AD=6P PS=10U PD=10U 
Mtr_02782 463 1351 573 1348 tp L=1U W=19U AS=38P AD=38P PS=42U PD=42U 
Mtr_02781 464 999 463 1348 tp L=1U W=19U AS=38P AD=38P PS=42U PD=42U 
Mtr_02780 1348 1322 570 1348 tp L=1U W=3U AS=6P AD=6P PS=10U PD=10U 
Mtr_02779 574 1005 1348 1348 tp L=1U W=4U AS=8P AD=8P PS=12U PD=12U 
Mtr_02778 1348 471 557 1348 tp L=1U W=45U AS=90P AD=90P PS=94U PD=94U 
Mtr_02777 559 472 1348 1348 tp L=1U W=45U AS=90P AD=90P PS=94U PD=94U 
Mtr_02776 559 472 1348 1348 tp L=1U W=46U AS=92P AD=92P PS=96U PD=96U 
Mtr_02775 1348 557 471 1348 tp L=2U W=2U AS=4P AD=4P PS=8U PD=8U 
Mtr_02774 472 559 1348 1348 tp L=2U W=2U AS=4P AD=4P PS=8U PD=8U 
Mtr_02773 1348 1005 471 1348 tp L=1U W=11U AS=22P AD=22P PS=26U PD=26U 
Mtr_02772 472 1005 1348 1348 tp L=1U W=11U AS=22P AD=22P PS=26U PD=26U 
Mtr_02771 1348 575 691 1348 tp L=1U W=46U AS=92P AD=92P PS=96U PD=96U 
Mtr_02770 694 576 1348 1348 tp L=1U W=46U AS=92P AD=92P PS=96U PD=96U 
Mtr_02769 1348 575 691 1348 tp L=1U W=45U AS=90P AD=90P PS=94U PD=94U 
Mtr_02768 694 576 1348 1348 tp L=1U W=45U AS=90P AD=90P PS=94U PD=94U 
Mtr_02767 1348 1005 575 1348 tp L=1U W=11U AS=22P AD=22P PS=26U PD=26U 
Mtr_02766 576 1005 1348 1348 tp L=1U W=11U AS=22P AD=22P PS=26U PD=26U 
Mtr_02765 576 694 1348 1348 tp L=2U W=2U AS=4P AD=4P PS=8U PD=8U 
Mtr_02764 1348 691 575 1348 tp L=2U W=2U AS=4P AD=4P PS=8U PD=8U 
Mtr_02763 1348 471 557 1348 tp L=1U W=46U AS=92P AD=92P PS=96U PD=96U 
Mtr_02762 713 1319 1348 1348 tp L=1U W=3U AS=6P AD=6P PS=10U PD=10U 
Mtr_02761 1348 713 568 1348 tp L=1U W=19U AS=38P AD=38P PS=42U PD=42U 
Mtr_02760 713 1324 1348 1348 tp L=1U W=3U AS=6P AD=6P PS=10U PD=10U 
Mtr_02759 569 1351 716 1348 tp L=1U W=19U AS=38P AD=38P PS=42U PD=42U 
Mtr_02758 568 999 569 1348 tp L=1U W=19U AS=38P AD=38P PS=42U PD=42U 
Mtr_02757 1348 1322 713 1348 tp L=1U W=3U AS=6P AD=6P PS=10U PD=10U 
Mtr_02756 717 1005 1348 1348 tp L=1U W=4U AS=8P AD=8P PS=12U PD=12U 
Mtr_02755 1348 577 693 1348 tp L=1U W=45U AS=90P AD=90P PS=94U PD=94U 
Mtr_02754 692 578 1348 1348 tp L=1U W=45U AS=90P AD=90P PS=94U PD=94U 
Mtr_02753 692 578 1348 1348 tp L=1U W=46U AS=92P AD=92P PS=96U PD=96U 
Mtr_02752 1348 693 577 1348 tp L=2U W=2U AS=4P AD=4P PS=8U PD=8U 
Mtr_02751 578 692 1348 1348 tp L=2U W=2U AS=4P AD=4P PS=8U PD=8U 
Mtr_02750 1348 1005 577 1348 tp L=1U W=11U AS=22P AD=22P PS=26U PD=26U 
Mtr_02749 578 1005 1348 1348 tp L=1U W=11U AS=22P AD=22P PS=26U PD=26U 
Mtr_02748 1348 718 819 1348 tp L=1U W=46U AS=92P AD=92P PS=96U PD=96U 
Mtr_02747 818 719 1348 1348 tp L=1U W=46U AS=92P AD=92P PS=96U PD=96U 
Mtr_02746 1348 718 819 1348 tp L=1U W=45U AS=90P AD=90P PS=94U PD=94U 
Mtr_02745 818 719 1348 1348 tp L=1U W=45U AS=90P AD=90P PS=94U PD=94U 
Mtr_02744 1348 1005 718 1348 tp L=1U W=11U AS=22P AD=22P PS=26U PD=26U 
Mtr_02743 719 1005 1348 1348 tp L=1U W=11U AS=22P AD=22P PS=26U PD=26U 
Mtr_02742 719 818 1348 1348 tp L=2U W=2U AS=4P AD=4P PS=8U PD=8U 
Mtr_02741 1348 819 718 1348 tp L=2U W=2U AS=4P AD=4P PS=8U PD=8U 
Mtr_02740 1348 577 693 1348 tp L=1U W=46U AS=92P AD=92P PS=96U PD=96U 
Mtr_02739 832 1319 1348 1348 tp L=1U W=3U AS=6P AD=6P PS=10U PD=10U 
Mtr_02738 1348 832 711 1348 tp L=1U W=19U AS=38P AD=38P PS=42U PD=42U 
Mtr_02737 832 1321 1348 1348 tp L=1U W=3U AS=6P AD=6P PS=10U PD=10U 
Mtr_02736 712 1351 835 1348 tp L=1U W=19U AS=38P AD=38P PS=42U PD=42U 
Mtr_02735 711 999 712 1348 tp L=1U W=19U AS=38P AD=38P PS=42U PD=42U 
Mtr_02734 1348 1325 832 1348 tp L=1U W=3U AS=6P AD=6P PS=10U PD=10U 
Mtr_02733 836 1005 1348 1348 tp L=1U W=4U AS=8P AD=8P PS=12U PD=12U 
Mtr_02732 1348 720 817 1348 tp L=1U W=45U AS=90P AD=90P PS=94U PD=94U 
Mtr_02731 961 837 1348 1348 tp L=1U W=45U AS=90P AD=90P PS=94U PD=94U 
Mtr_02730 961 837 1348 1348 tp L=1U W=46U AS=92P AD=92P PS=96U PD=96U 
Mtr_02729 1348 817 720 1348 tp L=2U W=2U AS=4P AD=4P PS=8U PD=8U 
Mtr_02728 837 961 1348 1348 tp L=2U W=2U AS=4P AD=4P PS=8U PD=8U 
Mtr_02727 1348 1005 720 1348 tp L=1U W=11U AS=22P AD=22P PS=26U PD=26U 
Mtr_02726 837 1005 1348 1348 tp L=1U W=11U AS=22P AD=22P PS=26U PD=26U 
Mtr_02725 1348 838 980 1348 tp L=1U W=46U AS=92P AD=92P PS=96U PD=96U 
Mtr_02724 979 839 1348 1348 tp L=1U W=46U AS=92P AD=92P PS=96U PD=96U 
Mtr_02723 1348 838 980 1348 tp L=1U W=45U AS=90P AD=90P PS=94U PD=94U 
Mtr_02722 979 839 1348 1348 tp L=1U W=45U AS=90P AD=90P PS=94U PD=94U 
Mtr_02721 1348 1005 838 1348 tp L=1U W=11U AS=22P AD=22P PS=26U PD=26U 
Mtr_02720 839 1005 1348 1348 tp L=1U W=11U AS=22P AD=22P PS=26U PD=26U 
Mtr_02719 839 979 1348 1348 tp L=2U W=2U AS=4P AD=4P PS=8U PD=8U 
Mtr_02718 1348 980 838 1348 tp L=2U W=2U AS=4P AD=4P PS=8U PD=8U 
Mtr_02717 1348 720 817 1348 tp L=1U W=46U AS=92P AD=92P PS=96U PD=96U 
Mtr_02716 1002 1319 1348 1348 tp L=1U W=3U AS=6P AD=6P PS=10U PD=10U 
Mtr_02715 1348 1002 998 1348 tp L=1U W=19U AS=38P AD=38P PS=42U PD=42U 
Mtr_02714 1002 1324 1348 1348 tp L=1U W=3U AS=6P AD=6P PS=10U PD=10U 
Mtr_02713 997 1351 1003 1348 tp L=1U W=19U AS=38P AD=38P PS=42U PD=42U 
Mtr_02712 998 999 997 1348 tp L=1U W=19U AS=38P AD=38P PS=42U PD=42U 
Mtr_02711 1348 1325 1002 1348 tp L=1U W=3U AS=6P AD=6P PS=10U PD=10U 
Mtr_02710 1004 1005 1348 1348 tp L=1U W=4U AS=8P AD=8P PS=12U PD=12U 
Mtr_02709 1348 840 978 1348 tp L=1U W=45U AS=90P AD=90P PS=94U PD=94U 
Mtr_02708 1138 1006 1348 1348 tp L=1U W=45U AS=90P AD=90P PS=94U PD=94U 
Mtr_02707 1138 1006 1348 1348 tp L=1U W=46U AS=92P AD=92P PS=96U PD=96U 
Mtr_02706 1348 978 840 1348 tp L=2U W=2U AS=4P AD=4P PS=8U PD=8U 
Mtr_02705 1006 1138 1348 1348 tp L=2U W=2U AS=4P AD=4P PS=8U PD=8U 
Mtr_02704 1348 1005 840 1348 tp L=1U W=11U AS=22P AD=22P PS=26U PD=26U 
Mtr_02703 1006 1005 1348 1348 tp L=1U W=11U AS=22P AD=22P PS=26U PD=26U 
Mtr_02702 1348 1007 1137 1348 tp L=1U W=46U AS=92P AD=92P PS=96U PD=96U 
Mtr_02701 1139 1008 1348 1348 tp L=1U W=46U AS=92P AD=92P PS=96U PD=96U 
Mtr_02700 1348 1007 1137 1348 tp L=1U W=45U AS=90P AD=90P PS=94U PD=94U 
Mtr_02699 1139 1008 1348 1348 tp L=1U W=45U AS=90P AD=90P PS=94U PD=94U 
Mtr_02698 1348 1005 1007 1348 tp L=1U W=11U AS=22P AD=22P PS=26U PD=26U 
Mtr_02697 1008 1005 1348 1348 tp L=1U W=11U AS=22P AD=22P PS=26U PD=26U 
Mtr_02696 1008 1139 1348 1348 tp L=2U W=2U AS=4P AD=4P PS=8U PD=8U 
Mtr_02695 1348 1137 1007 1348 tp L=2U W=2U AS=4P AD=4P PS=8U PD=8U 
Mtr_02694 1348 840 978 1348 tp L=1U W=46U AS=92P AD=92P PS=96U PD=96U 
Mtr_02693 1244 1234 1348 1348 tp L=1U W=14U AS=28P AD=28P PS=32U PD=32U 
Mtr_02692 1348 1236 1153 1348 tp L=1U W=13U AS=26P AD=26P PS=30U PD=30U 
Mtr_02691 1153 1236 1348 1348 tp L=1U W=13U AS=26P AD=26P PS=30U PD=30U 
Mtr_02690 1236 1320 1348 1348 tp L=1U W=6U AS=12P AD=12P PS=16U PD=16U 
Mtr_02689 1348 1328 1236 1348 tp L=1U W=6U AS=12P AD=12P PS=16U PD=16U 
Mtr_02688 1348 1237 1152 1348 tp L=1U W=13U AS=26P AD=26P PS=30U PD=30U 
Mtr_02687 1152 1237 1348 1348 tp L=1U W=13U AS=26P AD=26P PS=30U PD=30U 
Mtr_02686 1348 1320 1237 1348 tp L=1U W=6U AS=12P AD=12P PS=16U PD=16U 
Mtr_02685 1237 1331 1348 1348 tp L=1U W=6U AS=12P AD=12P PS=16U PD=16U 
Mtr_02684 1348 1241 1154 1348 tp L=1U W=13U AS=26P AD=26P PS=30U PD=30U 
Mtr_02683 1154 1241 1348 1348 tp L=1U W=13U AS=26P AD=26P PS=30U PD=30U 
Mtr_02682 1241 1323 1348 1348 tp L=1U W=6U AS=12P AD=12P PS=16U PD=16U 
Mtr_02681 1348 1328 1241 1348 tp L=1U W=6U AS=12P AD=12P PS=16U PD=16U 
Mtr_02680 1348 1242 1155 1348 tp L=1U W=13U AS=26P AD=26P PS=30U PD=30U 
Mtr_02679 1155 1242 1348 1348 tp L=1U W=13U AS=26P AD=26P PS=30U PD=30U 
Mtr_02678 1348 1323 1242 1348 tp L=1U W=6U AS=12P AD=12P PS=16U PD=16U 
Mtr_02677 1242 1331 1348 1348 tp L=1U W=6U AS=12P AD=12P PS=16U PD=16U 
Mtr_02676 1348 1244 1156 1348 tp L=1U W=10U AS=20P AD=20P PS=24U PD=24U 
Mtr_02675 1262 1156 1348 1348 tp L=1U W=10U AS=20P AD=20P PS=24U PD=24U 
Mtr_02674 1348 1156 1262 1348 tp L=1U W=10U AS=20P AD=20P PS=24U PD=24U 
Mtr_02673 1262 1156 1348 1348 tp L=1U W=10U AS=20P AD=20P PS=24U PD=24U 
Mtr_02672 1348 1156 1262 1348 tp L=1U W=10U AS=20P AD=20P PS=24U PD=24U 
Mtr_02671 1348 1166 1229 1348 tp L=1U W=34U AS=68P AD=68P PS=72U PD=72U 
Mtr_02670 1228 1165 1348 1348 tp L=1U W=34U AS=68P AD=68P PS=72U PD=72U 
Mtr_02669 1348 1244 1165 1348 tp L=1U W=7U AS=14P AD=14P PS=18U PD=18U 
Mtr_02668 1165 1333 1348 1348 tp L=1U W=7U AS=14P AD=14P PS=18U PD=18U 
Mtr_02667 1348 1326 1165 1348 tp L=1U W=7U AS=14P AD=14P PS=18U PD=18U 
Mtr_02666 1166 1332 1348 1348 tp L=1U W=7U AS=14P AD=14P PS=18U PD=18U 
Mtr_02665 1348 1326 1166 1348 tp L=1U W=7U AS=14P AD=14P PS=18U PD=18U 
Mtr_02664 1348 1244 1166 1348 tp L=1U W=7U AS=14P AD=14P PS=18U PD=18U 
Mtr_02663 1348 1243 1227 1348 tp L=1U W=34U AS=68P AD=68P PS=72U PD=72U 
Mtr_02662 1246 1245 1348 1348 tp L=1U W=34U AS=68P AD=68P PS=72U PD=72U 
Mtr_02661 1243 1244 1348 1348 tp L=1U W=7U AS=14P AD=14P PS=18U PD=18U 
Mtr_02660 1243 1332 1348 1348 tp L=1U W=7U AS=14P AD=14P PS=18U PD=18U 
Mtr_02659 1245 1244 1348 1348 tp L=1U W=7U AS=14P AD=14P PS=18U PD=18U 
Mtr_02658 1348 1329 1245 1348 tp L=1U W=7U AS=14P AD=14P PS=18U PD=18U 
Mtr_02657 1245 1333 1348 1348 tp L=1U W=7U AS=14P AD=14P PS=18U PD=18U 
Mtr_02656 1348 1329 1243 1348 tp L=1U W=7U AS=14P AD=14P PS=18U PD=18U 
Mtr_02655 1348 1330 1266 1348 tp L=1U W=6U AS=12P AD=12P PS=16U PD=16U 
Mtr_02654 1266 1244 1348 1348 tp L=1U W=6U AS=12P AD=12P PS=16U PD=16U 
Mtr_02653 1348 1327 1267 1348 tp L=1U W=6U AS=12P AD=12P PS=16U PD=16U 
Mtr_02652 1267 1244 1348 1348 tp L=1U W=6U AS=12P AD=12P PS=16U PD=16U 
Mtr_02651 1306 1266 1348 1348 tp L=1U W=34U AS=68P AD=68P PS=72U PD=72U 
Mtr_02650 1348 1267 1305 1348 tp L=1U W=34U AS=68P AD=68P PS=72U PD=72U 
Mtr_02649 1247 1268 1348 1348 tp L=4U W=2U AS=4P AD=4P PS=8U PD=8U 
Mtr_02648 1348 1262 1247 1348 tp L=1U W=3U AS=6P AD=6P PS=10U PD=10U 
Mtr_02647 1348 1247 1268 1348 tp L=1U W=8U AS=16P AD=16P PS=20U PD=20U 
Mtr_02646 1248 1270 1348 1348 tp L=4U W=2U AS=4P AD=4P PS=8U PD=8U 
Mtr_02645 1348 1262 1248 1348 tp L=1U W=3U AS=6P AD=6P PS=10U PD=10U 
Mtr_02644 1348 1248 1270 1348 tp L=1U W=8U AS=16P AD=16P PS=20U PD=20U 
Mtr_02643 1249 1273 1348 1348 tp L=4U W=2U AS=4P AD=4P PS=8U PD=8U 
Mtr_02642 1348 1262 1249 1348 tp L=1U W=3U AS=6P AD=6P PS=10U PD=10U 
Mtr_02641 1348 1249 1273 1348 tp L=1U W=8U AS=16P AD=16P PS=20U PD=20U 
Mtr_02640 1250 1274 1348 1348 tp L=4U W=2U AS=4P AD=4P PS=8U PD=8U 
Mtr_02639 1348 1262 1250 1348 tp L=1U W=3U AS=6P AD=6P PS=10U PD=10U 
Mtr_02638 1348 1250 1274 1348 tp L=1U W=8U AS=16P AD=16P PS=20U PD=20U 
Mtr_02637 1251 1278 1348 1348 tp L=4U W=2U AS=4P AD=4P PS=8U PD=8U 
Mtr_02636 1348 1262 1251 1348 tp L=1U W=3U AS=6P AD=6P PS=10U PD=10U 
Mtr_02635 1348 1251 1278 1348 tp L=1U W=8U AS=16P AD=16P PS=20U PD=20U 
Mtr_02634 1252 1281 1348 1348 tp L=4U W=2U AS=4P AD=4P PS=8U PD=8U 
Mtr_02633 1348 1262 1252 1348 tp L=1U W=3U AS=6P AD=6P PS=10U PD=10U 
Mtr_02632 1348 1252 1281 1348 tp L=1U W=8U AS=16P AD=16P PS=20U PD=20U 
Mtr_02631 1253 1283 1348 1348 tp L=4U W=2U AS=4P AD=4P PS=8U PD=8U 
Mtr_02630 1348 1262 1253 1348 tp L=1U W=3U AS=6P AD=6P PS=10U PD=10U 
Mtr_02629 1348 1253 1283 1348 tp L=1U W=8U AS=16P AD=16P PS=20U PD=20U 
Mtr_02628 1254 1285 1348 1348 tp L=4U W=2U AS=4P AD=4P PS=8U PD=8U 
Mtr_02627 1348 1262 1254 1348 tp L=1U W=3U AS=6P AD=6P PS=10U PD=10U 
Mtr_02626 1348 1254 1285 1348 tp L=1U W=8U AS=16P AD=16P PS=20U PD=20U 
Mtr_02625 1255 1284 1348 1348 tp L=4U W=2U AS=4P AD=4P PS=8U PD=8U 
Mtr_02624 1348 1262 1255 1348 tp L=1U W=3U AS=6P AD=6P PS=10U PD=10U 
Mtr_02623 1348 1255 1284 1348 tp L=1U W=8U AS=16P AD=16P PS=20U PD=20U 
Mtr_02622 1256 1290 1348 1348 tp L=4U W=2U AS=4P AD=4P PS=8U PD=8U 
Mtr_02621 1348 1262 1256 1348 tp L=1U W=3U AS=6P AD=6P PS=10U PD=10U 
Mtr_02620 1348 1256 1290 1348 tp L=1U W=8U AS=16P AD=16P PS=20U PD=20U 
Mtr_02619 1257 1293 1348 1348 tp L=4U W=2U AS=4P AD=4P PS=8U PD=8U 
Mtr_02618 1348 1262 1257 1348 tp L=1U W=3U AS=6P AD=6P PS=10U PD=10U 
Mtr_02617 1348 1257 1293 1348 tp L=1U W=8U AS=16P AD=16P PS=20U PD=20U 
Mtr_02616 1258 1294 1348 1348 tp L=4U W=2U AS=4P AD=4P PS=8U PD=8U 
Mtr_02615 1348 1262 1258 1348 tp L=1U W=3U AS=6P AD=6P PS=10U PD=10U 
Mtr_02614 1348 1258 1294 1348 tp L=1U W=8U AS=16P AD=16P PS=20U PD=20U 
Mtr_02613 1259 1297 1348 1348 tp L=4U W=2U AS=4P AD=4P PS=8U PD=8U 
Mtr_02612 1348 1262 1259 1348 tp L=1U W=3U AS=6P AD=6P PS=10U PD=10U 
Mtr_02611 1348 1259 1297 1348 tp L=1U W=8U AS=16P AD=16P PS=20U PD=20U 
Mtr_02610 1260 1301 1348 1348 tp L=4U W=2U AS=4P AD=4P PS=8U PD=8U 
Mtr_02609 1348 1262 1260 1348 tp L=1U W=3U AS=6P AD=6P PS=10U PD=10U 
Mtr_02608 1348 1260 1301 1348 tp L=1U W=8U AS=16P AD=16P PS=20U PD=20U 
Mtr_02607 1261 1303 1348 1348 tp L=4U W=2U AS=4P AD=4P PS=8U PD=8U 
Mtr_02606 1348 1262 1261 1348 tp L=1U W=3U AS=6P AD=6P PS=10U PD=10U 
Mtr_02605 1348 1261 1303 1348 tp L=1U W=8U AS=16P AD=16P PS=20U PD=20U 
Mtr_02604 1263 1304 1348 1348 tp L=4U W=2U AS=4P AD=4P PS=8U PD=8U 
Mtr_02603 1348 1262 1263 1348 tp L=1U W=3U AS=6P AD=6P PS=10U PD=10U 
Mtr_02602 1348 1263 1304 1348 tp L=1U W=8U AS=16P AD=16P PS=20U PD=20U 
Mtr_02601 1348 1318 1319 1348 tp L=1U W=3U AS=6P AD=6P PS=10U PD=10U 
Mtr_02600 1319 1318 1348 1348 tp L=1U W=3U AS=6P AD=6P PS=10U PD=10U 
Mtr_02599 1319 1318 1348 1348 tp L=1U W=3U AS=6P AD=6P PS=10U PD=10U 
Mtr_02598 1348 1318 1319 1348 tp L=1U W=3U AS=6P AD=6P PS=10U PD=10U 
Mtr_02597 1319 1318 1348 1348 tp L=1U W=3U AS=6P AD=6P PS=10U PD=10U 
Mtr_02596 1319 1318 1348 1348 tp L=1U W=3U AS=6P AD=6P PS=10U PD=10U 
Mtr_02595 1348 1322 1325 1348 tp L=1U W=3U AS=6P AD=6P PS=10U PD=10U 
Mtr_02594 1325 1322 1348 1348 tp L=1U W=3U AS=6P AD=6P PS=10U PD=10U 
Mtr_02593 1325 1322 1348 1348 tp L=1U W=3U AS=6P AD=6P PS=10U PD=10U 
Mtr_02592 1348 1322 1325 1348 tp L=1U W=3U AS=6P AD=6P PS=10U PD=10U 
Mtr_02591 1325 1322 1348 1348 tp L=1U W=3U AS=6P AD=6P PS=10U PD=10U 
Mtr_02590 1325 1322 1348 1348 tp L=1U W=3U AS=6P AD=6P PS=10U PD=10U 
Mtr_02589 1348 1321 1324 1348 tp L=1U W=3U AS=6P AD=6P PS=10U PD=10U 
Mtr_02588 1324 1321 1348 1348 tp L=1U W=3U AS=6P AD=6P PS=10U PD=10U 
Mtr_02587 1324 1321 1348 1348 tp L=1U W=3U AS=6P AD=6P PS=10U PD=10U 
Mtr_02586 1348 1321 1324 1348 tp L=1U W=3U AS=6P AD=6P PS=10U PD=10U 
Mtr_02585 1324 1321 1348 1348 tp L=1U W=3U AS=6P AD=6P PS=10U PD=10U 
Mtr_02584 1324 1321 1348 1348 tp L=1U W=3U AS=6P AD=6P PS=10U PD=10U 
Mtr_02583 1348 1320 1323 1348 tp L=1U W=3U AS=6P AD=6P PS=10U PD=10U 
Mtr_02582 1323 1320 1348 1348 tp L=1U W=3U AS=6P AD=6P PS=10U PD=10U 
Mtr_02581 1323 1320 1348 1348 tp L=1U W=3U AS=6P AD=6P PS=10U PD=10U 
Mtr_02580 1348 1320 1323 1348 tp L=1U W=3U AS=6P AD=6P PS=10U PD=10U 
Mtr_02579 1323 1320 1348 1348 tp L=1U W=3U AS=6P AD=6P PS=10U PD=10U 
Mtr_02578 1323 1320 1348 1348 tp L=1U W=3U AS=6P AD=6P PS=10U PD=10U 
Mtr_02577 1348 1328 1331 1348 tp L=1U W=3U AS=6P AD=6P PS=10U PD=10U 
Mtr_02576 1331 1328 1348 1348 tp L=1U W=3U AS=6P AD=6P PS=10U PD=10U 
Mtr_02575 1331 1328 1348 1348 tp L=1U W=3U AS=6P AD=6P PS=10U PD=10U 
Mtr_02574 1348 1328 1331 1348 tp L=1U W=3U AS=6P AD=6P PS=10U PD=10U 
Mtr_02573 1331 1328 1348 1348 tp L=1U W=3U AS=6P AD=6P PS=10U PD=10U 
Mtr_02572 1331 1328 1348 1348 tp L=1U W=3U AS=6P AD=6P PS=10U PD=10U 
Mtr_02571 1348 1327 1330 1348 tp L=1U W=3U AS=6P AD=6P PS=10U PD=10U 
Mtr_02570 1330 1327 1348 1348 tp L=1U W=3U AS=6P AD=6P PS=10U PD=10U 
Mtr_02569 1330 1327 1348 1348 tp L=1U W=3U AS=6P AD=6P PS=10U PD=10U 
Mtr_02568 1348 1327 1330 1348 tp L=1U W=3U AS=6P AD=6P PS=10U PD=10U 
Mtr_02567 1330 1327 1348 1348 tp L=1U W=3U AS=6P AD=6P PS=10U PD=10U 
Mtr_02566 1330 1327 1348 1348 tp L=1U W=3U AS=6P AD=6P PS=10U PD=10U 
Mtr_02565 1348 1326 1329 1348 tp L=1U W=3U AS=6P AD=6P PS=10U PD=10U 
Mtr_02564 1329 1326 1348 1348 tp L=1U W=3U AS=6P AD=6P PS=10U PD=10U 
Mtr_02563 1329 1326 1348 1348 tp L=1U W=3U AS=6P AD=6P PS=10U PD=10U 
Mtr_02562 1348 1326 1329 1348 tp L=1U W=3U AS=6P AD=6P PS=10U PD=10U 
Mtr_02561 1329 1326 1348 1348 tp L=1U W=3U AS=6P AD=6P PS=10U PD=10U 
Mtr_02560 1329 1326 1348 1348 tp L=1U W=3U AS=6P AD=6P PS=10U PD=10U 
Mtr_02559 1348 1332 1333 1348 tp L=1U W=3U AS=6P AD=6P PS=10U PD=10U 
Mtr_02558 1333 1332 1348 1348 tp L=1U W=3U AS=6P AD=6P PS=10U PD=10U 
Mtr_02557 1333 1332 1348 1348 tp L=1U W=3U AS=6P AD=6P PS=10U PD=10U 
Mtr_02556 1348 1332 1333 1348 tp L=1U W=3U AS=6P AD=6P PS=10U PD=10U 
Mtr_02555 1333 1332 1348 1348 tp L=1U W=3U AS=6P AD=6P PS=10U PD=10U 
Mtr_02554 1333 1332 1348 1348 tp L=1U W=3U AS=6P AD=6P PS=10U PD=10U 
Mtr_02553 1272 1262 1348 1348 tp L=1U W=3U AS=6P AD=6P PS=10U PD=10U 
Mtr_02552 1272 1310 1348 1348 tp L=3U W=2U AS=4P AD=4P PS=8U PD=8U 
Mtr_02551 1310 1272 1348 1348 tp L=1U W=9U AS=18P AD=18P PS=22U PD=22U 
Mtr_02550 1348 1272 1310 1348 tp L=1U W=4U AS=8P AD=8P PS=12U PD=12U 
Mtr_02549 1348 1334 1335 1348 tp L=1U W=9U AS=18P AD=18P PS=22U PD=22U 
Mtr_02548 1335 1334 1348 1348 tp L=1U W=5U AS=10P AD=10P PS=14U PD=14U 
Mtr_02547 1348 1334 1335 1348 tp L=1U W=5U AS=10P AD=10P PS=14U PD=14U 
Mtr_02546 1348 1334 1335 1348 tp L=1U W=9U AS=18P AD=18P PS=22U PD=22U 
Mtr_02545 1335 1334 1348 1348 tp L=1U W=5U AS=10P AD=10P PS=14U PD=14U 
Mtr_02544 1348 1334 1335 1348 tp L=1U W=5U AS=10P AD=10P PS=14U PD=14U 
Mtr_02543 1348 1310 1334 1348 tp L=1U W=14U AS=28P AD=28P PS=32U PD=32U 
Mtr_02542 1276 1262 1348 1348 tp L=1U W=3U AS=6P AD=6P PS=10U PD=10U 
Mtr_02541 1276 1311 1348 1348 tp L=3U W=2U AS=4P AD=4P PS=8U PD=8U 
Mtr_02540 1311 1276 1348 1348 tp L=1U W=9U AS=18P AD=18P PS=22U PD=22U 