* Spice description of r256x8_5
* Spice driver version 700
* Date ( dd/mm/yyyy hh:mm:ss ): 20/09/2002 at 17:50:04

* INTERF adr[0] adr[1] adr[2] adr[3] adr[4] adr[5] adr[6] adr[7] ck[0] ck[1] 
* INTERF f[0] f[1] f[2] f[3] f[4] f[5] f[6] f[7] vdd vss 


.subckt r256x8_5 308 302 303 304 296 297 298 294 210 1 326 323 321 319 
+ 317 315 313 311 324 327 
* NET 1 = ck[1] 
* NET 5 = rl/7.w1 
* NET 6 = rbl4/1/2.e0 
* NET 7 = rck.ckp 
* NET 13 = rl/7.e1 
* NET 14 = rl/7.tr_p 
* NET 15 = rl/7.w2 
* NET 16 = rl/7.w3 
* NET 17 = rl/7.w4 
* NET 18 = rbl4/1/2.e1 
* NET 19 = rbl4/1/2.e2 
* NET 20 = rbl4/1/2.e3 
* NET 26 = rl/6.e1 
* NET 27 = rl/6.tr_p 
* NET 28 = rl/6.w1 
* NET 29 = rl/6.w2 
* NET 30 = rl/6.w3 
* NET 31 = rl/6.w4 
* NET 32 = rbl4/1/2.e7 
* NET 33 = rbl4/1/2.e6 
* NET 34 = umf.e31 
* NET 35 = rbl4/1/2.e5 
* NET 40 = rl/5.w1 
* NET 41 = rl/5.w2 
* NET 42 = rl/5.w3 
* NET 43 = rbl4/1/2.e10 
* NET 44 = rbl4/1/2.e8 
* NET 45 = rbl4/1/2.e9 
* NET 50 = rl/5.e1 
* NET 51 = rl/5.tr_p 
* NET 52 = rl/5.w4 
* NET 53 = rl/4.w1 
* NET 54 = rl/4.w2 
* NET 55 = rbl4/1/2.e11 
* NET 56 = rbl4/1/2.e14 
* NET 57 = rbl4/1/2.e13 
* NET 58 = rbl4/1/2.e12 
* NET 63 = rl/4.e1 
* NET 64 = rl/4.tr_p 
* NET 65 = rl/4.w3 
* NET 66 = rl/4.w4 
* NET 67 = rl/3.w1 
* NET 68 = rl/3.w2 
* NET 69 = umf.e0 
* NET 70 = rbl4/1/2.e15 
* NET 71 = umf.e1 
* NET 77 = rl/3.e1 
* NET 78 = rl/3.tr_p 
* NET 79 = rl/3.w3 
* NET 80 = rl/3.w4 
* NET 81 = rl/2.w1 
* NET 82 = rl/2.w2 
* NET 83 = umf.e2 
* NET 84 = umf.e5 
* NET 85 = umf.e4 
* NET 86 = umf.e3 
* NET 92 = rl/2.e1 
* NET 93 = rl/2.tr_p 
* NET 94 = rl/2.w3 
* NET 95 = rl/2.w4 
* NET 96 = rl/1.w1 
* NET 97 = umf.e8 
* NET 98 = umf.e7 
* NET 99 = umf.e6 
* NET 103 = rl/1.e1 
* NET 104 = rl/1.tr_p 
* NET 105 = rl/1.w2 
* NET 106 = rl/1.w3 
* NET 107 = rl/1.w4 
* NET 108 = rl/0.w1 
* NET 109 = umf.e9 
* NET 110 = umf.e12 
* NET 111 = umf.e11 
* NET 112 = umf.e10 
* NET 115 = rck.ck_02 
* NET 119 = rl/0.e1 
* NET 120 = rl/0.tr_p 
* NET 121 = rck.ck_03 
* NET 122 = rl/0.w2 
* NET 123 = rl/0.w3 
* NET 124 = rl/0.w4 
* NET 125 = umf.e14 
* NET 126 = umf.e13 
* NET 127 = umf.e15 
* NET 128 = rw2.n1 
* NET 129 = rw3.n1 
* NET 130 = rw1.n1 
* NET 131 = rw0.n1 
* NET 132 = rc116.n2 
* NET 143 = rp4/15.s3 
* NET 144 = rmx4/15.bl0_p 
* NET 145 = rp4/14.s2 
* NET 146 = rp4/14.s1 
* NET 147 = rp4/15.s2 
* NET 148 = rp4/15.s1 
* NET 149 = rp4/14.s3 
* NET 150 = rmx4/14.bl0_p 
* NET 151 = rp4/13.s3 
* NET 152 = rmx4/13.bl0_p 
* NET 153 = rp4/12.s2 
* NET 154 = rp4/13.s2 
* NET 155 = rp4/12.s3 
* NET 156 = rp4/12.s1 
* NET 157 = rp4/13.s1 
* NET 158 = rp4/11.s3 
* NET 159 = rmx4/11.bl0_p 
* NET 160 = rp4/11.s2 
* NET 161 = rp4/11.s1 
* NET 162 = rmx4/12.bl0_p 
* NET 163 = rp4/10.s2 
* NET 164 = rp4/10.s3 
* NET 165 = rp4/10.s1 
* NET 166 = rmx4/10.bl0_p 
* NET 167 = rp4/9.s3 
* NET 168 = rmx4/9.bl0_p 
* NET 169 = rp4/9.s2 
* NET 170 = rp4/9.s1 
* NET 171 = rmx4/7.bl0_p 
* NET 172 = rp4/7.s3 
* NET 173 = rp4/8.s3 
* NET 174 = rmx4/8.bl0_p 
* NET 175 = rp4/8.s2 
* NET 176 = rp4/8.s1 
* NET 177 = rp4/6.s2 
* NET 178 = rp4/6.s1 
* NET 179 = rp4/7.s2 
* NET 180 = rp4/7.s1 
* NET 181 = rp4/5.s3 
* NET 182 = rmx4/5.bl0_p 
* NET 183 = rp4/6.s3 
* NET 184 = rmx4/6.bl0_p 
* NET 185 = rp4/4.s2 
* NET 186 = rp4/4.s1 
* NET 187 = rp4/5.s2 
* NET 188 = rp4/5.s1 
* NET 189 = rp4/3.s2 
* NET 190 = rp4/3.s3 
* NET 191 = rp4/3.s1 
* NET 192 = rmx4/3.bl0_p 
* NET 193 = rp4/4.s3 
* NET 194 = rmx4/4.bl0_p 
* NET 195 = rp4/2.s2 
* NET 196 = rp4/2.s3 
* NET 197 = rp4/2.s1 
* NET 198 = rmx4/2.bl0_p 
* NET 199 = rp4/1.s2 
* NET 200 = rp4/1.s3 
* NET 201 = rp4/1.s1 
* NET 202 = rmx4/1.bl0_p 
* NET 203 = x0.w2 
* NET 204 = x0.w1 
* NET 205 = x0.w0 
* NET 206 = rp4/0.s2 
* NET 207 = rp4/0.s3 
* NET 208 = rp4/0.s1 
* NET 209 = rmx4/0.bl0_p 
* NET 210 = ck[0] 
* NET 217 = rw1.inv 
* NET 220 = x2.ck_11 
* NET 222 = x1.w3 
* NET 223 = rmx4/15.bit_p 
* NET 224 = rmx4/14.bit_p 
* NET 225 = rmx4/13.bit_p 
* NET 226 = rmx4/12.bit_p 
* NET 227 = rmx4/11.bit_p 
* NET 228 = rmx4/10.bit_p 
* NET 229 = rmx4/9.bit_p 
* NET 230 = rmx4/8.bit_p 
* NET 231 = rmx4/7.bit_p 
* NET 232 = rmx4/6.bit_p 
* NET 233 = rmx4/5.bit_p 
* NET 234 = rmx4/4.bit_p 
* NET 235 = rmx4/3.bit_p 
* NET 236 = rmx4/2.bit_p 
* NET 237 = rmx4/1.bit_p 
* NET 238 = x1.ck_13 
* NET 239 = rmx4/0.bit_p 
* NET 242 = x2.n3b 
* NET 244 = rmx2/7.i1 
* NET 246 = rmx2/7.i0 
* NET 248 = rmx2/7.s_p 
* NET 252 = rmx2/6.s_p 
* NET 254 = rmx2/5.i1 
* NET 257 = rmx2/5.i0 
* NET 258 = rmx2/5.s_p 
* NET 260 = rmx2/3.i1 
* NET 265 = rmx2/4.s_p 
* NET 266 = rmx2/3.i0 
* NET 268 = rmx2/3.s_p 
* NET 273 = rmx2/1.i1 
* NET 274 = rmx2/2.s_p 
* NET 277 = rmx2/1.i0 
* NET 278 = rmx2/1.s_p 
* NET 281 = bf.e1 
* NET 282 = bf.e0 
* NET 284 = rmx2/0.s_p 
* NET 294 = adr[7] 
* NET 295 = rli/0.f 
* NET 296 = adr[4] 
* NET 297 = adr[5] 
* NET 298 = adr[6] 
* NET 299 = rw3.e1 
* NET 300 = rli/2.f 
* NET 301 = rli/1.f 
* NET 302 = adr[1] 
* NET 303 = adr[2] 
* NET 304 = adr[3] 
* NET 305 = x1.s5 
* NET 306 = x2.s0 
* NET 307 = rw3.e3 
* NET 308 = adr[0] 
* NET 309 = x0.s7 
* NET 310 = rob/7.vss1 
* NET 311 = f[7] 
* NET 312 = rob/6.vss1 
* NET 313 = f[6] 
* NET 314 = rob/5.vss1 
* NET 315 = f[5] 
* NET 316 = rob/4.vss1 
* NET 317 = f[4] 
* NET 318 = rob/3.vss1 
* NET 319 = f[3] 
* NET 320 = rob/2.vss1 
* NET 321 = f[2] 
* NET 322 = rob/1.vss1 
* NET 323 = f[1] 
* NET 324 = vdd 
* NET 325 = rob/0.vss1 
* NET 326 = f[0] 
* NET 327 = vss 
Mtr_02885 2 1 324 324 tp L=1U W=14U AS=28P AD=28P PS=32U PD=32U 
Mtr_02884 115 2 324 324 tp L=1U W=10U AS=20P AD=20P PS=24U PD=24U 
Mtr_02883 324 2 115 324 tp L=1U W=10U AS=20P AD=20P PS=24U PD=24U 
Mtr_02882 115 2 324 324 tp L=1U W=7U AS=14P AD=14P PS=18U PD=18U 
Mtr_02881 324 115 121 324 tp L=1U W=36U AS=72P AD=72P PS=76U PD=76U 
Mtr_02880 324 121 3 324 tp L=1U W=11U AS=22P AD=22P PS=26U PD=26U 
Mtr_02879 324 3 4 324 tp L=1U W=14U AS=28P AD=28P PS=32U PD=32U 
Mtr_02878 7 4 324 324 tp L=1U W=54U AS=108P AD=108P PS=112U PD=112U 
Mtr_02877 11 294 324 324 tp L=1U W=3U AS=6P AD=6P PS=10U PD=10U 
Mtr_02876 324 11 9 324 tp L=1U W=19U AS=38P AD=38P PS=42U PD=42U 
Mtr_02875 11 297 324 324 tp L=1U W=3U AS=6P AD=6P PS=10U PD=10U 
Mtr_02874 8 327 13 324 tp L=1U W=19U AS=38P AD=38P PS=42U PD=42U 
Mtr_02873 9 115 8 324 tp L=1U W=19U AS=38P AD=38P PS=42U PD=42U 
Mtr_02872 324 298 11 324 tp L=1U W=3U AS=6P AD=6P PS=10U PD=10U 
Mtr_02871 14 121 324 324 tp L=1U W=4U AS=8P AD=8P PS=12U PD=12U 
Mtr_02870 324 5 6 324 tp L=1U W=45U AS=90P AD=90P PS=94U PD=94U 
Mtr_02869 18 15 324 324 tp L=1U W=45U AS=90P AD=90P PS=94U PD=94U 
Mtr_02868 18 15 324 324 tp L=1U W=46U AS=92P AD=92P PS=96U PD=96U 
Mtr_02867 324 6 5 324 tp L=2U W=2U AS=4P AD=4P PS=8U PD=8U 
Mtr_02866 15 18 324 324 tp L=2U W=2U AS=4P AD=4P PS=8U PD=8U 
Mtr_02865 324 121 5 324 tp L=1U W=11U AS=22P AD=22P PS=26U PD=26U 
Mtr_02864 15 121 324 324 tp L=1U W=11U AS=22P AD=22P PS=26U PD=26U 
Mtr_02863 324 16 19 324 tp L=1U W=46U AS=92P AD=92P PS=96U PD=96U 
Mtr_02862 20 17 324 324 tp L=1U W=46U AS=92P AD=92P PS=96U PD=96U 
Mtr_02861 324 16 19 324 tp L=1U W=45U AS=90P AD=90P PS=94U PD=94U 
Mtr_02860 20 17 324 324 tp L=1U W=45U AS=90P AD=90P PS=94U PD=94U 
Mtr_02859 324 121 16 324 tp L=1U W=11U AS=22P AD=22P PS=26U PD=26U 
Mtr_02858 17 121 324 324 tp L=1U W=11U AS=22P AD=22P PS=26U PD=26U 
Mtr_02857 17 20 324 324 tp L=2U W=2U AS=4P AD=4P PS=8U PD=8U 
Mtr_02856 324 19 16 324 tp L=2U W=2U AS=4P AD=4P PS=8U PD=8U 
Mtr_02855 324 5 6 324 tp L=1U W=46U AS=92P AD=92P PS=96U PD=96U 
Mtr_02854 25 294 324 324 tp L=1U W=3U AS=6P AD=6P PS=10U PD=10U 
Mtr_02853 324 25 22 324 tp L=1U W=19U AS=38P AD=38P PS=42U PD=42U 
Mtr_02852 25 300 324 324 tp L=1U W=3U AS=6P AD=6P PS=10U PD=10U 
Mtr_02851 21 327 26 324 tp L=1U W=19U AS=38P AD=38P PS=42U PD=42U 
Mtr_02850 22 115 21 324 tp L=1U W=19U AS=38P AD=38P PS=42U PD=42U 
Mtr_02849 324 298 25 324 tp L=1U W=3U AS=6P AD=6P PS=10U PD=10U 
Mtr_02848 27 121 324 324 tp L=1U W=4U AS=8P AD=8P PS=12U PD=12U 
Mtr_02847 324 28 34 324 tp L=1U W=45U AS=90P AD=90P PS=94U PD=94U 
Mtr_02846 35 29 324 324 tp L=1U W=45U AS=90P AD=90P PS=94U PD=94U 
Mtr_02845 35 29 324 324 tp L=1U W=46U AS=92P AD=92P PS=96U PD=96U 
Mtr_02844 324 34 28 324 tp L=2U W=2U AS=4P AD=4P PS=8U PD=8U 
Mtr_02843 29 35 324 324 tp L=2U W=2U AS=4P AD=4P PS=8U PD=8U 
Mtr_02842 324 121 28 324 tp L=1U W=11U AS=22P AD=22P PS=26U PD=26U 
Mtr_02841 29 121 324 324 tp L=1U W=11U AS=22P AD=22P PS=26U PD=26U 
Mtr_02840 324 30 33 324 tp L=1U W=46U AS=92P AD=92P PS=96U PD=96U 
Mtr_02839 32 31 324 324 tp L=1U W=46U AS=92P AD=92P PS=96U PD=96U 
Mtr_02838 324 30 33 324 tp L=1U W=45U AS=90P AD=90P PS=94U PD=94U 
Mtr_02837 32 31 324 324 tp L=1U W=45U AS=90P AD=90P PS=94U PD=94U 
Mtr_02836 324 121 30 324 tp L=1U W=11U AS=22P AD=22P PS=26U PD=26U 
Mtr_02835 31 121 324 324 tp L=1U W=11U AS=22P AD=22P PS=26U PD=26U 
Mtr_02834 31 32 324 324 tp L=2U W=2U AS=4P AD=4P PS=8U PD=8U 
Mtr_02833 324 33 30 324 tp L=2U W=2U AS=4P AD=4P PS=8U PD=8U 
Mtr_02832 324 28 34 324 tp L=1U W=46U AS=92P AD=92P PS=96U PD=96U 
Mtr_02831 49 294 324 324 tp L=1U W=3U AS=6P AD=6P PS=10U PD=10U 
Mtr_02830 324 49 37 324 tp L=1U W=19U AS=38P AD=38P PS=42U PD=42U 
Mtr_02829 49 297 324 324 tp L=1U W=3U AS=6P AD=6P PS=10U PD=10U 
Mtr_02828 36 327 50 324 tp L=1U W=19U AS=38P AD=38P PS=42U PD=42U 
Mtr_02827 37 115 36 324 tp L=1U W=19U AS=38P AD=38P PS=42U PD=42U 
Mtr_02826 324 301 49 324 tp L=1U W=3U AS=6P AD=6P PS=10U PD=10U 
Mtr_02825 51 121 324 324 tp L=1U W=4U AS=8P AD=8P PS=12U PD=12U 
Mtr_02824 324 40 44 324 tp L=1U W=45U AS=90P AD=90P PS=94U PD=94U 
Mtr_02823 45 41 324 324 tp L=1U W=45U AS=90P AD=90P PS=94U PD=94U 
Mtr_02822 45 41 324 324 tp L=1U W=46U AS=92P AD=92P PS=96U PD=96U 
Mtr_02821 324 44 40 324 tp L=2U W=2U AS=4P AD=4P PS=8U PD=8U 
Mtr_02820 41 45 324 324 tp L=2U W=2U AS=4P AD=4P PS=8U PD=8U 
Mtr_02819 324 121 40 324 tp L=1U W=11U AS=22P AD=22P PS=26U PD=26U 
Mtr_02818 41 121 324 324 tp L=1U W=11U AS=22P AD=22P PS=26U PD=26U 
Mtr_02817 324 42 43 324 tp L=1U W=46U AS=92P AD=92P PS=96U PD=96U 
Mtr_02816 55 52 324 324 tp L=1U W=46U AS=92P AD=92P PS=96U PD=96U 
Mtr_02815 324 42 43 324 tp L=1U W=45U AS=90P AD=90P PS=94U PD=94U 
Mtr_02814 55 52 324 324 tp L=1U W=45U AS=90P AD=90P PS=94U PD=94U 
Mtr_02813 324 121 42 324 tp L=1U W=11U AS=22P AD=22P PS=26U PD=26U 
Mtr_02812 52 121 324 324 tp L=1U W=11U AS=22P AD=22P PS=26U PD=26U 
Mtr_02811 52 55 324 324 tp L=2U W=2U AS=4P AD=4P PS=8U PD=8U 
Mtr_02810 324 43 42 324 tp L=2U W=2U AS=4P AD=4P PS=8U PD=8U 
Mtr_02809 324 40 44 324 tp L=1U W=46U AS=92P AD=92P PS=96U PD=96U 
Mtr_02808 61 294 324 324 tp L=1U W=3U AS=6P AD=6P PS=10U PD=10U 
Mtr_02807 324 61 47 324 tp L=1U W=19U AS=38P AD=38P PS=42U PD=42U 
Mtr_02806 61 300 324 324 tp L=1U W=3U AS=6P AD=6P PS=10U PD=10U 
Mtr_02805 46 327 63 324 tp L=1U W=19U AS=38P AD=38P PS=42U PD=42U 
Mtr_02804 47 115 46 324 tp L=1U W=19U AS=38P AD=38P PS=42U PD=42U 
Mtr_02803 324 301 61 324 tp L=1U W=3U AS=6P AD=6P PS=10U PD=10U 
Mtr_02802 64 121 324 324 tp L=1U W=4U AS=8P AD=8P PS=12U PD=12U 
Mtr_02801 324 53 58 324 tp L=1U W=45U AS=90P AD=90P PS=94U PD=94U 
Mtr_02800 57 54 324 324 tp L=1U W=45U AS=90P AD=90P PS=94U PD=94U 
Mtr_02799 57 54 324 324 tp L=1U W=46U AS=92P AD=92P PS=96U PD=96U 
Mtr_02798 324 58 53 324 tp L=2U W=2U AS=4P AD=4P PS=8U PD=8U 
Mtr_02797 54 57 324 324 tp L=2U W=2U AS=4P AD=4P PS=8U PD=8U 
Mtr_02796 324 121 53 324 tp L=1U W=11U AS=22P AD=22P PS=26U PD=26U 
Mtr_02795 54 121 324 324 tp L=1U W=11U AS=22P AD=22P PS=26U PD=26U 
Mtr_02794 324 65 56 324 tp L=1U W=46U AS=92P AD=92P PS=96U PD=96U 
Mtr_02793 70 66 324 324 tp L=1U W=46U AS=92P AD=92P PS=96U PD=96U 
Mtr_02792 324 65 56 324 tp L=1U W=45U AS=90P AD=90P PS=94U PD=94U 
Mtr_02791 70 66 324 324 tp L=1U W=45U AS=90P AD=90P PS=94U PD=94U 
Mtr_02790 324 121 65 324 tp L=1U W=11U AS=22P AD=22P PS=26U PD=26U 
Mtr_02789 66 121 324 324 tp L=1U W=11U AS=22P AD=22P PS=26U PD=26U 
Mtr_02788 66 70 324 324 tp L=2U W=2U AS=4P AD=4P PS=8U PD=8U 
Mtr_02787 324 56 65 324 tp L=2U W=2U AS=4P AD=4P PS=8U PD=8U 
Mtr_02786 324 53 58 324 tp L=1U W=46U AS=92P AD=92P PS=96U PD=96U 
Mtr_02785 74 295 324 324 tp L=1U W=3U AS=6P AD=6P PS=10U PD=10U 
Mtr_02784 324 74 60 324 tp L=1U W=19U AS=38P AD=38P PS=42U PD=42U 
Mtr_02783 74 297 324 324 tp L=1U W=3U AS=6P AD=6P PS=10U PD=10U 
Mtr_02782 59 327 77 324 tp L=1U W=19U AS=38P AD=38P PS=42U PD=42U 
Mtr_02781 60 115 59 324 tp L=1U W=19U AS=38P AD=38P PS=42U PD=42U 
Mtr_02780 324 298 74 324 tp L=1U W=3U AS=6P AD=6P PS=10U PD=10U 
Mtr_02779 78 121 324 324 tp L=1U W=4U AS=8P AD=8P PS=12U PD=12U 
Mtr_02778 324 67 69 324 tp L=1U W=45U AS=90P AD=90P PS=94U PD=94U 
Mtr_02777 71 68 324 324 tp L=1U W=45U AS=90P AD=90P PS=94U PD=94U 
Mtr_02776 71 68 324 324 tp L=1U W=46U AS=92P AD=92P PS=96U PD=96U 
Mtr_02775 324 69 67 324 tp L=2U W=2U AS=4P AD=4P PS=8U PD=8U 
Mtr_02774 68 71 324 324 tp L=2U W=2U AS=4P AD=4P PS=8U PD=8U 
Mtr_02773 324 121 67 324 tp L=1U W=11U AS=22P AD=22P PS=26U PD=26U 
Mtr_02772 68 121 324 324 tp L=1U W=11U AS=22P AD=22P PS=26U PD=26U 
Mtr_02771 324 79 83 324 tp L=1U W=46U AS=92P AD=92P PS=96U PD=96U 
Mtr_02770 86 80 324 324 tp L=1U W=46U AS=92P AD=92P PS=96U PD=96U 
Mtr_02769 324 79 83 324 tp L=1U W=45U AS=90P AD=90P PS=94U PD=94U 
Mtr_02768 86 80 324 324 tp L=1U W=45U AS=90P AD=90P PS=94U PD=94U 
Mtr_02767 324 121 79 324 tp L=1U W=11U AS=22P AD=22P PS=26U PD=26U 
Mtr_02766 80 121 324 324 tp L=1U W=11U AS=22P AD=22P PS=26U PD=26U 
Mtr_02765 80 86 324 324 tp L=2U W=2U AS=4P AD=4P PS=8U PD=8U 
Mtr_02764 324 83 79 324 tp L=2U W=2U AS=4P AD=4P PS=8U PD=8U 
Mtr_02763 324 67 69 324 tp L=1U W=46U AS=92P AD=92P PS=96U PD=96U 
Mtr_02762 89 295 324 324 tp L=1U W=3U AS=6P AD=6P PS=10U PD=10U 
Mtr_02761 324 89 72 324 tp L=1U W=19U AS=38P AD=38P PS=42U PD=42U 
Mtr_02760 89 300 324 324 tp L=1U W=3U AS=6P AD=6P PS=10U PD=10U 
Mtr_02759 73 327 92 324 tp L=1U W=19U AS=38P AD=38P PS=42U PD=42U 
Mtr_02758 72 115 73 324 tp L=1U W=19U AS=38P AD=38P PS=42U PD=42U 
Mtr_02757 324 298 89 324 tp L=1U W=3U AS=6P AD=6P PS=10U PD=10U 
Mtr_02756 93 121 324 324 tp L=1U W=4U AS=8P AD=8P PS=12U PD=12U 
Mtr_02755 324 81 85 324 tp L=1U W=45U AS=90P AD=90P PS=94U PD=94U 
Mtr_02754 84 82 324 324 tp L=1U W=45U AS=90P AD=90P PS=94U PD=94U 
Mtr_02753 84 82 324 324 tp L=1U W=46U AS=92P AD=92P PS=96U PD=96U 
Mtr_02752 324 85 81 324 tp L=2U W=2U AS=4P AD=4P PS=8U PD=8U 
Mtr_02751 82 84 324 324 tp L=2U W=2U AS=4P AD=4P PS=8U PD=8U 
Mtr_02750 324 121 81 324 tp L=1U W=11U AS=22P AD=22P PS=26U PD=26U 
Mtr_02749 82 121 324 324 tp L=1U W=11U AS=22P AD=22P PS=26U PD=26U 
Mtr_02748 324 94 99 324 tp L=1U W=46U AS=92P AD=92P PS=96U PD=96U 
Mtr_02747 98 95 324 324 tp L=1U W=46U AS=92P AD=92P PS=96U PD=96U 
Mtr_02746 324 94 99 324 tp L=1U W=45U AS=90P AD=90P PS=94U PD=94U 
Mtr_02745 98 95 324 324 tp L=1U W=45U AS=90P AD=90P PS=94U PD=94U 
Mtr_02744 324 121 94 324 tp L=1U W=11U AS=22P AD=22P PS=26U PD=26U 
Mtr_02743 95 121 324 324 tp L=1U W=11U AS=22P AD=22P PS=26U PD=26U 
Mtr_02742 95 98 324 324 tp L=2U W=2U AS=4P AD=4P PS=8U PD=8U 
Mtr_02741 324 99 94 324 tp L=2U W=2U AS=4P AD=4P PS=8U PD=8U 
Mtr_02740 324 81 85 324 tp L=1U W=46U AS=92P AD=92P PS=96U PD=96U 
Mtr_02739 100 295 324 324 tp L=1U W=3U AS=6P AD=6P PS=10U PD=10U 
Mtr_02738 324 100 87 324 tp L=1U W=19U AS=38P AD=38P PS=42U PD=42U 
Mtr_02737 100 297 324 324 tp L=1U W=3U AS=6P AD=6P PS=10U PD=10U 
Mtr_02736 88 327 103 324 tp L=1U W=19U AS=38P AD=38P PS=42U PD=42U 
Mtr_02735 87 115 88 324 tp L=1U W=19U AS=38P AD=38P PS=42U PD=42U 
Mtr_02734 324 301 100 324 tp L=1U W=3U AS=6P AD=6P PS=10U PD=10U 
Mtr_02733 104 121 324 324 tp L=1U W=4U AS=8P AD=8P PS=12U PD=12U 
Mtr_02732 324 96 97 324 tp L=1U W=45U AS=90P AD=90P PS=94U PD=94U 
Mtr_02731 109 105 324 324 tp L=1U W=45U AS=90P AD=90P PS=94U PD=94U 
Mtr_02730 109 105 324 324 tp L=1U W=46U AS=92P AD=92P PS=96U PD=96U 
Mtr_02729 324 97 96 324 tp L=2U W=2U AS=4P AD=4P PS=8U PD=8U 
Mtr_02728 105 109 324 324 tp L=2U W=2U AS=4P AD=4P PS=8U PD=8U 
Mtr_02727 324 121 96 324 tp L=1U W=11U AS=22P AD=22P PS=26U PD=26U 
Mtr_02726 105 121 324 324 tp L=1U W=11U AS=22P AD=22P PS=26U PD=26U 
Mtr_02725 324 106 112 324 tp L=1U W=46U AS=92P AD=92P PS=96U PD=96U 
Mtr_02724 111 107 324 324 tp L=1U W=46U AS=92P AD=92P PS=96U PD=96U 
Mtr_02723 324 106 112 324 tp L=1U W=45U AS=90P AD=90P PS=94U PD=94U 
Mtr_02722 111 107 324 324 tp L=1U W=45U AS=90P AD=90P PS=94U PD=94U 
Mtr_02721 324 121 106 324 tp L=1U W=11U AS=22P AD=22P PS=26U PD=26U 
Mtr_02720 107 121 324 324 tp L=1U W=11U AS=22P AD=22P PS=26U PD=26U 
Mtr_02719 107 111 324 324 tp L=2U W=2U AS=4P AD=4P PS=8U PD=8U 
Mtr_02718 324 112 106 324 tp L=2U W=2U AS=4P AD=4P PS=8U PD=8U 
Mtr_02717 324 96 97 324 tp L=1U W=46U AS=92P AD=92P PS=96U PD=96U 
Mtr_02716 118 295 324 324 tp L=1U W=3U AS=6P AD=6P PS=10U PD=10U 
Mtr_02715 324 118 114 324 tp L=1U W=19U AS=38P AD=38P PS=42U PD=42U 
Mtr_02714 118 300 324 324 tp L=1U W=3U AS=6P AD=6P PS=10U PD=10U 
Mtr_02713 113 327 119 324 tp L=1U W=19U AS=38P AD=38P PS=42U PD=42U 
Mtr_02712 114 115 113 324 tp L=1U W=19U AS=38P AD=38P PS=42U PD=42U 
Mtr_02711 324 301 118 324 tp L=1U W=3U AS=6P AD=6P PS=10U PD=10U 
Mtr_02710 120 121 324 324 tp L=1U W=4U AS=8P AD=8P PS=12U PD=12U 
Mtr_02709 324 108 110 324 tp L=1U W=45U AS=90P AD=90P PS=94U PD=94U 
Mtr_02708 126 122 324 324 tp L=1U W=45U AS=90P AD=90P PS=94U PD=94U 
Mtr_02707 126 122 324 324 tp L=1U W=46U AS=92P AD=92P PS=96U PD=96U 
Mtr_02706 324 110 108 324 tp L=2U W=2U AS=4P AD=4P PS=8U PD=8U 
Mtr_02705 122 126 324 324 tp L=2U W=2U AS=4P AD=4P PS=8U PD=8U 
Mtr_02704 324 121 108 324 tp L=1U W=11U AS=22P AD=22P PS=26U PD=26U 
Mtr_02703 122 121 324 324 tp L=1U W=11U AS=22P AD=22P PS=26U PD=26U 
Mtr_02702 324 123 125 324 tp L=1U W=46U AS=92P AD=92P PS=96U PD=96U 
Mtr_02701 127 124 324 324 tp L=1U W=46U AS=92P AD=92P PS=96U PD=96U 
Mtr_02700 324 123 125 324 tp L=1U W=45U AS=90P AD=90P PS=94U PD=94U 
Mtr_02699 127 124 324 324 tp L=1U W=45U AS=90P AD=90P PS=94U PD=94U 
Mtr_02698 324 121 123 324 tp L=1U W=11U AS=22P AD=22P PS=26U PD=26U 
Mtr_02697 124 121 324 324 tp L=1U W=11U AS=22P AD=22P PS=26U PD=26U 
Mtr_02696 124 127 324 324 tp L=2U W=2U AS=4P AD=4P PS=8U PD=8U 
Mtr_02695 324 125 123 324 tp L=2U W=2U AS=4P AD=4P PS=8U PD=8U 
Mtr_02694 324 108 110 324 tp L=1U W=46U AS=92P AD=92P PS=96U PD=96U 
Mtr_02693 220 210 324 324 tp L=1U W=14U AS=28P AD=28P PS=32U PD=32U 
Mtr_02692 324 212 129 324 tp L=1U W=13U AS=26P AD=26P PS=30U PD=30U 
Mtr_02691 129 212 324 324 tp L=1U W=13U AS=26P AD=26P PS=30U PD=30U 
Mtr_02690 212 296 324 324 tp L=1U W=6U AS=12P AD=12P PS=16U PD=16U 
Mtr_02689 324 304 212 324 tp L=1U W=6U AS=12P AD=12P PS=16U PD=16U 
Mtr_02688 324 213 128 324 tp L=1U W=13U AS=26P AD=26P PS=30U PD=30U 
Mtr_02687 128 213 324 324 tp L=1U W=13U AS=26P AD=26P PS=30U PD=30U 
Mtr_02686 324 296 213 324 tp L=1U W=6U AS=12P AD=12P PS=16U PD=16U 
Mtr_02685 213 307 324 324 tp L=1U W=6U AS=12P AD=12P PS=16U PD=16U 
Mtr_02684 324 217 130 324 tp L=1U W=13U AS=26P AD=26P PS=30U PD=30U 
Mtr_02683 130 217 324 324 tp L=1U W=13U AS=26P AD=26P PS=30U PD=30U 
Mtr_02682 217 299 324 324 tp L=1U W=6U AS=12P AD=12P PS=16U PD=16U 
Mtr_02681 324 304 217 324 tp L=1U W=6U AS=12P AD=12P PS=16U PD=16U 
Mtr_02680 324 218 131 324 tp L=1U W=13U AS=26P AD=26P PS=30U PD=30U 
Mtr_02679 131 218 324 324 tp L=1U W=13U AS=26P AD=26P PS=30U PD=30U 
Mtr_02678 324 299 218 324 tp L=1U W=6U AS=12P AD=12P PS=16U PD=16U 
Mtr_02677 218 307 324 324 tp L=1U W=6U AS=12P AD=12P PS=16U PD=16U 
Mtr_02676 324 220 132 324 tp L=1U W=10U AS=20P AD=20P PS=24U PD=24U 
Mtr_02675 238 132 324 324 tp L=1U W=10U AS=20P AD=20P PS=24U PD=24U 
Mtr_02674 324 132 238 324 tp L=1U W=10U AS=20P AD=20P PS=24U PD=24U 
Mtr_02673 238 132 324 324 tp L=1U W=10U AS=20P AD=20P PS=24U PD=24U 
Mtr_02672 324 132 238 324 tp L=1U W=10U AS=20P AD=20P PS=24U PD=24U 
Mtr_02671 324 142 205 324 tp L=1U W=34U AS=68P AD=68P PS=72U PD=72U 
Mtr_02670 204 141 324 324 tp L=1U W=34U AS=68P AD=68P PS=72U PD=72U 
Mtr_02669 324 220 141 324 tp L=1U W=7U AS=14P AD=14P PS=18U PD=18U 
Mtr_02668 141 309 324 324 tp L=1U W=7U AS=14P AD=14P PS=18U PD=18U 
Mtr_02667 324 302 141 324 tp L=1U W=7U AS=14P AD=14P PS=18U PD=18U 
Mtr_02666 142 308 324 324 tp L=1U W=7U AS=14P AD=14P PS=18U PD=18U 
Mtr_02665 324 302 142 324 tp L=1U W=7U AS=14P AD=14P PS=18U PD=18U 
Mtr_02664 324 220 142 324 tp L=1U W=7U AS=14P AD=14P PS=18U PD=18U 
Mtr_02663 324 219 203 324 tp L=1U W=34U AS=68P AD=68P PS=72U PD=72U 
Mtr_02662 222 221 324 324 tp L=1U W=34U AS=68P AD=68P PS=72U PD=72U 
Mtr_02661 219 220 324 324 tp L=1U W=7U AS=14P AD=14P PS=18U PD=18U 
Mtr_02660 219 308 324 324 tp L=1U W=7U AS=14P AD=14P PS=18U PD=18U 
Mtr_02659 221 220 324 324 tp L=1U W=7U AS=14P AD=14P PS=18U PD=18U 
Mtr_02658 324 305 221 324 tp L=1U W=7U AS=14P AD=14P PS=18U PD=18U 
Mtr_02657 221 309 324 324 tp L=1U W=7U AS=14P AD=14P PS=18U PD=18U 
Mtr_02656 324 305 219 324 tp L=1U W=7U AS=14P AD=14P PS=18U PD=18U 
Mtr_02655 324 306 242 324 tp L=1U W=6U AS=12P AD=12P PS=16U PD=16U 
Mtr_02654 242 220 324 324 tp L=1U W=6U AS=12P AD=12P PS=16U PD=16U 
Mtr_02653 324 303 243 324 tp L=1U W=6U AS=12P AD=12P PS=16U PD=16U 
Mtr_02652 243 220 324 324 tp L=1U W=6U AS=12P AD=12P PS=16U PD=16U 
Mtr_02651 282 242 324 324 tp L=1U W=34U AS=68P AD=68P PS=72U PD=72U 
Mtr_02650 324 243 281 324 tp L=1U W=34U AS=68P AD=68P PS=72U PD=72U 
Mtr_02649 223 244 324 324 tp L=4U W=2U AS=4P AD=4P PS=8U PD=8U 
Mtr_02648 324 238 223 324 tp L=1U W=3U AS=6P AD=6P PS=10U PD=10U 
Mtr_02647 324 223 244 324 tp L=1U W=8U AS=16P AD=16P PS=20U PD=20U 
Mtr_02646 224 246 324 324 tp L=4U W=2U AS=4P AD=4P PS=8U PD=8U 
Mtr_02645 324 238 224 324 tp L=1U W=3U AS=6P AD=6P PS=10U PD=10U 
Mtr_02644 324 224 246 324 tp L=1U W=8U AS=16P AD=16P PS=20U PD=20U 
Mtr_02643 225 249 324 324 tp L=4U W=2U AS=4P AD=4P PS=8U PD=8U 
Mtr_02642 324 238 225 324 tp L=1U W=3U AS=6P AD=6P PS=10U PD=10U 
Mtr_02641 324 225 249 324 tp L=1U W=8U AS=16P AD=16P PS=20U PD=20U 
Mtr_02640 226 250 324 324 tp L=4U W=2U AS=4P AD=4P PS=8U PD=8U 
Mtr_02639 324 238 226 324 tp L=1U W=3U AS=6P AD=6P PS=10U PD=10U 
Mtr_02638 324 226 250 324 tp L=1U W=8U AS=16P AD=16P PS=20U PD=20U 
Mtr_02637 227 254 324 324 tp L=4U W=2U AS=4P AD=4P PS=8U PD=8U 
Mtr_02636 324 238 227 324 tp L=1U W=3U AS=6P AD=6P PS=10U PD=10U 
Mtr_02635 324 227 254 324 tp L=1U W=8U AS=16P AD=16P PS=20U PD=20U 
Mtr_02634 228 257 324 324 tp L=4U W=2U AS=4P AD=4P PS=8U PD=8U 
Mtr_02633 324 238 228 324 tp L=1U W=3U AS=6P AD=6P PS=10U PD=10U 
Mtr_02632 324 228 257 324 tp L=1U W=8U AS=16P AD=16P PS=20U PD=20U 
Mtr_02631 229 259 324 324 tp L=4U W=2U AS=4P AD=4P PS=8U PD=8U 
Mtr_02630 324 238 229 324 tp L=1U W=3U AS=6P AD=6P PS=10U PD=10U 
Mtr_02629 324 229 259 324 tp L=1U W=8U AS=16P AD=16P PS=20U PD=20U 
Mtr_02628 230 261 324 324 tp L=4U W=2U AS=4P AD=4P PS=8U PD=8U 
Mtr_02627 324 238 230 324 tp L=1U W=3U AS=6P AD=6P PS=10U PD=10U 
Mtr_02626 324 230 261 324 tp L=1U W=8U AS=16P AD=16P PS=20U PD=20U 
Mtr_02625 231 260 324 324 tp L=4U W=2U AS=4P AD=4P PS=8U PD=8U 
Mtr_02624 324 238 231 324 tp L=1U W=3U AS=6P AD=6P PS=10U PD=10U 
Mtr_02623 324 231 260 324 tp L=1U W=8U AS=16P AD=16P PS=20U PD=20U 
Mtr_02622 232 266 324 324 tp L=4U W=2U AS=4P AD=4P PS=8U PD=8U 
Mtr_02621 324 238 232 324 tp L=1U W=3U AS=6P AD=6P PS=10U PD=10U 
Mtr_02620 324 232 266 324 tp L=1U W=8U AS=16P AD=16P PS=20U PD=20U 
Mtr_02619 233 269 324 324 tp L=4U W=2U AS=4P AD=4P PS=8U PD=8U 
Mtr_02618 324 238 233 324 tp L=1U W=3U AS=6P AD=6P PS=10U PD=10U 
Mtr_02617 324 233 269 324 tp L=1U W=8U AS=16P AD=16P PS=20U PD=20U 
Mtr_02616 234 270 324 324 tp L=4U W=2U AS=4P AD=4P PS=8U PD=8U 
Mtr_02615 324 238 234 324 tp L=1U W=3U AS=6P AD=6P PS=10U PD=10U 
Mtr_02614 324 234 270 324 tp L=1U W=8U AS=16P AD=16P PS=20U PD=20U 
Mtr_02613 235 273 324 324 tp L=4U W=2U AS=4P AD=4P PS=8U PD=8U 
Mtr_02612 324 238 235 324 tp L=1U W=3U AS=6P AD=6P PS=10U PD=10U 
Mtr_02611 324 235 273 324 tp L=1U W=8U AS=16P AD=16P PS=20U PD=20U 
Mtr_02610 236 277 324 324 tp L=4U W=2U AS=4P AD=4P PS=8U PD=8U 
Mtr_02609 324 238 236 324 tp L=1U W=3U AS=6P AD=6P PS=10U PD=10U 
Mtr_02608 324 236 277 324 tp L=1U W=8U AS=16P AD=16P PS=20U PD=20U 
Mtr_02607 237 279 324 324 tp L=4U W=2U AS=4P AD=4P PS=8U PD=8U 
Mtr_02606 324 238 237 324 tp L=1U W=3U AS=6P AD=6P PS=10U PD=10U 
Mtr_02605 324 237 279 324 tp L=1U W=8U AS=16P AD=16P PS=20U PD=20U 
Mtr_02604 239 280 324 324 tp L=4U W=2U AS=4P AD=4P PS=8U PD=8U 
Mtr_02603 324 238 239 324 tp L=1U W=3U AS=6P AD=6P PS=10U PD=10U 
Mtr_02602 324 239 280 324 tp L=1U W=8U AS=16P AD=16P PS=20U PD=20U 
Mtr_02601 324 294 295 324 tp L=1U W=3U AS=6P AD=6P PS=10U PD=10U 
Mtr_02600 295 294 324 324 tp L=1U W=3U AS=6P AD=6P PS=10U PD=10U 
Mtr_02599 295 294 324 324 tp L=1U W=3U AS=6P AD=6P PS=10U PD=10U 
Mtr_02598 324 294 295 324 tp L=1U W=3U AS=6P AD=6P PS=10U PD=10U 
Mtr_02597 295 294 324 324 tp L=1U W=3U AS=6P AD=6P PS=10U PD=10U 
Mtr_02596 295 294 324 324 tp L=1U W=3U AS=6P AD=6P PS=10U PD=10U 
Mtr_02595 324 298 301 324 tp L=1U W=3U AS=6P AD=6P PS=10U PD=10U 
Mtr_02594 301 298 324 324 tp L=1U W=3U AS=6P AD=6P PS=10U PD=10U 
Mtr_02593 301 298 324 324 tp L=1U W=3U AS=6P AD=6P PS=10U PD=10U 
Mtr_02592 324 298 301 324 tp L=1U W=3U AS=6P AD=6P PS=10U PD=10U 
Mtr_02591 301 298 324 324 tp L=1U W=3U AS=6P AD=6P PS=10U PD=10U 
Mtr_02590 301 298 324 324 tp L=1U W=3U AS=6P AD=6P PS=10U PD=10U 
Mtr_02589 324 297 300 324 tp L=1U W=3U AS=6P AD=6P PS=10U PD=10U 
Mtr_02588 300 297 324 324 tp L=1U W=3U AS=6P AD=6P PS=10U PD=10U 
Mtr_02587 300 297 324 324 tp L=1U W=3U AS=6P AD=6P PS=10U PD=10U 
Mtr_02586 324 297 300 324 tp L=1U W=3U AS=6P AD=6P PS=10U PD=10U 
Mtr_02585 300 297 324 324 tp L=1U W=3U AS=6P AD=6P PS=10U PD=10U 
Mtr_02584 300 297 324 324 tp L=1U W=3U AS=6P AD=6P PS=10U PD=10U 
Mtr_02583 324 296 299 324 tp L=1U W=3U AS=6P AD=6P PS=10U PD=10U 
Mtr_02582 299 296 324 324 tp L=1U W=3U AS=6P AD=6P PS=10U PD=10U 
Mtr_02581 299 296 324 324 tp L=1U W=3U AS=6P AD=6P PS=10U PD=10U 
Mtr_02580 324 296 299 324 tp L=1U W=3U AS=6P AD=6P PS=10U PD=10U 
Mtr_02579 299 296 324 324 tp L=1U W=3U AS=6P AD=6P PS=10U PD=10U 
Mtr_02578 299 296 324 324 tp L=1U W=3U AS=6P AD=6P PS=10U PD=10U 
Mtr_02577 324 304 307 324 tp L=1U W=3U AS=6P AD=6P PS=10U PD=10U 
Mtr_02576 307 304 324 324 tp L=1U W=3U AS=6P AD=6P PS=10U PD=10U 
Mtr_02575 307 304 324 324 tp L=1U W=3U AS=6P AD=6P PS=10U PD=10U 
Mtr_02574 324 304 307 324 tp L=1U W=3U AS=6P AD=6P PS=10U PD=10U 
Mtr_02573 307 304 324 324 tp L=1U W=3U AS=6P AD=6P PS=10U PD=10U 
Mtr_02572 307 304 324 324 tp L=1U W=3U AS=6P AD=6P PS=10U PD=10U 
Mtr_02571 324 303 306 324 tp L=1U W=3U AS=6P AD=6P PS=10U PD=10U 
Mtr_02570 306 303 324 324 tp L=1U W=3U AS=6P AD=6P PS=10U PD=10U 
Mtr_02569 306 303 324 324 tp L=1U W=3U AS=6P AD=6P PS=10U PD=10U 
Mtr_02568 324 303 306 324 tp L=1U W=3U AS=6P AD=6P PS=10U PD=10U 
Mtr_02567 306 303 324 324 tp L=1U W=3U AS=6P AD=6P PS=10U PD=10U 
Mtr_02566 306 303 324 324 tp L=1U W=3U AS=6P AD=6P PS=10U PD=10U 
Mtr_02565 324 302 305 324 tp L=1U W=3U AS=6P AD=6P PS=10U PD=10U 
Mtr_02564 305 302 324 324 tp L=1U W=3U AS=6P AD=6P PS=10U PD=10U 
Mtr_02563 305 302 324 324 tp L=1U W=3U AS=6P AD=6P PS=10U PD=10U 
Mtr_02562 324 302 305 324 tp L=1U W=3U AS=6P AD=6P PS=10U PD=10U 
Mtr_02561 305 302 324 324 tp L=1U W=3U AS=6P AD=6P PS=10U PD=10U 
Mtr_02560 305 302 324 324 tp L=1U W=3U AS=6P AD=6P PS=10U PD=10U 
Mtr_02559 324 308 309 324 tp L=1U W=3U AS=6P AD=6P PS=10U PD=10U 
Mtr_02558 309 308 324 324 tp L=1U W=3U AS=6P AD=6P PS=10U PD=10U 
Mtr_02557 309 308 324 324 tp L=1U W=3U AS=6P AD=6P PS=10U PD=10U 
Mtr_02556 324 308 309 324 tp L=1U W=3U AS=6P AD=6P PS=10U PD=10U 
Mtr_02555 309 308 324 324 tp L=1U W=3U AS=6P AD=6P PS=10U PD=10U 
Mtr_02554 309 308 324 324 tp L=1U W=3U AS=6P AD=6P PS=10U PD=10U 
Mtr_02553 248 238 324 324 tp L=1U W=3U AS=6P AD=6P PS=10U PD=10U 
Mtr_02552 248 286 324 324 tp L=3U W=2U AS=4P AD=4P PS=8U PD=8U 
Mtr_02551 286 248 324 324 tp L=1U W=9U AS=18P AD=18P PS=22U PD=22U 
Mtr_02550 324 248 286 324 tp L=1U W=4U AS=8P AD=8P PS=12U PD=12U 
Mtr_02549 324 310 311 324 tp L=1U W=9U AS=18P AD=18P PS=22U PD=22U 
Mtr_02548 311 310 324 324 tp L=1U W=5U AS=10P AD=10P PS=14U PD=14U 
Mtr_02547 324 310 311 324 tp L=1U W=5U AS=10P AD=10P PS=14U PD=14U 
Mtr_02546 324 310 311 324 tp L=1U W=9U AS=18P AD=18P PS=22U PD=22U 
Mtr_02545 311 310 324 324 tp L=1U W=5U AS=10P AD=10P PS=14U PD=14U 
Mtr_02544 324 310 311 324 tp L=1U W=5U AS=10P AD=10P PS=14U PD=14U 
Mtr_02543 324 286 310 324 tp L=1U W=14U AS=28P AD=28P PS=32U PD=32U 
Mtr_02542 252 238 324 324 tp L=1U W=3U AS=6P AD=6P PS=10U PD=10U 
Mtr_02541 252 287 324 324 tp L=3U W=2U AS=4P AD=4P PS=8U PD=8U 
Mtr_02540 287 252 324 324 tp L=1U W=9U AS=18P AD=18P PS=22U PD=22U 
Mtr_02539 324 252 287 324 tp L=1U W=4U AS=8P AD=8P PS=12U PD=12U 
Mtr_02538 324 312 313 324 tp L=1U W=9U AS=18P AD=18P PS=22U PD=22U 
Mtr_02537 313 312 324 324 tp L=1U W=5U AS=10P AD=10P PS=14U PD=14U 
Mtr_02536 324 312 313 324 tp L=1U W=5U AS=10P AD=10P PS=14U PD=14U 
Mtr_02535 324 312 313 324 tp L=1U W=9U AS=18P AD=18P PS=22U PD=22U 
Mtr_02534 313 312 324 324 tp L=1U W=5U AS=10P AD=10P PS=14U PD=14U 
Mtr_02533 324 312 313 324 tp L=1U W=5U AS=10P AD=10P PS=14U PD=14U 
Mtr_02532 324 287 312 324 tp L=1U W=14U AS=28P AD=28P PS=32U PD=32U 
Mtr_02531 258 238 324 324 tp L=1U W=3U AS=6P AD=6P PS=10U PD=10U 
Mtr_02530 258 288 324 324 tp L=3U W=2U AS=4P AD=4P PS=8U PD=8U 
Mtr_02529 288 258 324 324 tp L=1U W=9U AS=18P AD=18P PS=22U PD=22U 
Mtr_02528 324 258 288 324 tp L=1U W=4U AS=8P AD=8P PS=12U PD=12U 
Mtr_02527 324 314 315 324 tp L=1U W=9U AS=18P AD=18P PS=22U PD=22U 
Mtr_02526 315 314 324 324 tp L=1U W=5U AS=10P AD=10P PS=14U PD=14U 
Mtr_02525 324 314 315 324 tp L=1U W=5U AS=10P AD=10P PS=14U PD=14U 
Mtr_02524 324 314 315 324 tp L=1U W=9U AS=18P AD=18P PS=22U PD=22U 
Mtr_02523 315 314 324 324 tp L=1U W=5U AS=10P AD=10P PS=14U PD=14U 
Mtr_02522 324 314 315 324 tp L=1U W=5U AS=10P AD=10P PS=14U PD=14U 
Mtr_02521 324 288 314 324 tp L=1U W=14U AS=28P AD=28P PS=32U PD=32U 
Mtr_02520 265 238 324 324 tp L=1U W=3U AS=6P AD=6P PS=10U PD=10U 
Mtr_02519 265 289 324 324 tp L=3U W=2U AS=4P AD=4P PS=8U PD=8U 
Mtr_02518 289 265 324 324 tp L=1U W=9U AS=18P AD=18P PS=22U PD=22U 
Mtr_02517 324 265 289 324 tp L=1U W=4U AS=8P AD=8P PS=12U PD=12U 