
.subckt addaccu vss vdd sel s_3 s_2 s_1 s_0 ck b_3 b_2 
+ b_1 b_0 a_3 a_2 a_1 a_0 
M1 vdd n5912_96 s_2_24 vdd TP L=0.18U W=14.472U AS=5.20992P AD=5.20992P 
+ PS=29.664U PD=29.664U 
M2 s_2_24 n5912_99 vdd vdd TP L=0.18U W=14.472U AS=5.20992P AD=5.20992P 
+ PS=29.664U PD=29.664U 
M3 vdd n5912_100 s_2_21 vdd TP L=0.18U W=14.472U AS=5.20992P AD=5.20992P 
+ PS=29.664U PD=29.664U 
M4 s_2_21 n5912_101 vdd vdd TP L=0.18U W=14.472U AS=5.20992P AD=5.20992P 
+ PS=29.664U PD=29.664U 
M5 vdd n5912_81 s_2_19 vdd TP L=0.18U W=14.472U AS=5.20992P AD=5.20992P 
+ PS=29.664U PD=29.664U 
M6 s_2_19 n5912_84 vdd vdd TP L=0.18U W=14.472U AS=5.20992P AD=5.20992P 
+ PS=29.664U PD=29.664U 
M7 vdd n5912_85 s_2_17 vdd TP L=0.18U W=14.472U AS=5.20992P AD=5.20992P 
+ PS=29.664U PD=29.664U 
M8 s_2_17 n5912_86 vdd vdd TP L=0.18U W=14.472U AS=5.20992P AD=5.20992P 
+ PS=29.664U PD=29.664U 
M9 vdd n5912_66 s_2_15 vdd TP L=0.18U W=14.472U AS=5.20992P AD=5.20992P 
+ PS=29.664U PD=29.664U 
M10 s_2_15 n5912_69 vdd vdd TP L=0.18U W=14.472U AS=5.20992P AD=5.20992P 
+ PS=29.664U PD=29.664U 
M11 vdd n5912_70 s_2_13 vdd TP L=0.18U W=14.472U AS=5.20992P AD=5.20992P 
+ PS=29.664U PD=29.664U 
M12 s_2_13 n5912_71 vdd vdd TP L=0.18U W=14.472U AS=5.20992P AD=5.20992P 
+ PS=29.664U PD=29.664U 
M13 vdd n5912_51 s_2_11 vdd TP L=0.18U W=14.472U AS=5.20992P AD=5.20992P 
+ PS=29.664U PD=29.664U 
M14 s_2_11 n5912_54 vdd vdd TP L=0.18U W=14.472U AS=5.20992P AD=5.20992P 
+ PS=29.664U PD=29.664U 
M15 vdd n5912_55 s_2_9 vdd TP L=0.18U W=14.472U AS=5.20992P AD=5.20992P 
+ PS=29.664U PD=29.664U 
M16 s_2_9 n5912_56 vdd vdd TP L=0.18U W=14.472U AS=5.20992P AD=5.20992P 
+ PS=29.664U PD=29.664U 
M17 vdd n5912_16 s_2_7 vdd TP L=0.18U W=14.472U AS=5.20992P AD=5.20992P 
+ PS=29.664U PD=29.664U 
M18 s_2_7 n5912_19 vdd vdd TP L=0.18U W=14.472U AS=5.20992P AD=5.20992P 
+ PS=29.664U PD=29.664U 
M19 vdd n5912_20 s_2_5 vdd TP L=0.18U W=14.472U AS=5.20992P AD=5.20992P 
+ PS=29.664U PD=29.664U 
M20 s_2_5 n5912_21 vdd vdd TP L=0.18U W=14.472U AS=5.20992P AD=5.20992P 
+ PS=29.664U PD=29.664U 
M21 vdd n5912_1 s_2_3 vdd TP L=0.18U W=14.472U AS=5.20992P AD=5.20992P 
+ PS=29.664U PD=29.664U 
M22 s_2_3 n5912_4 vdd vdd TP L=0.18U W=14.472U AS=5.20992P AD=5.20992P 
+ PS=29.664U PD=29.664U 
M23 vdd n5912_5 s_2_1 vdd TP L=0.18U W=14.472U AS=5.20992P AD=5.20992P 
+ PS=29.664U PD=29.664U 
M24 s_2_1 n5912_6 vdd vdd TP L=0.18U W=14.472U AS=5.20992P AD=5.20992P 
+ PS=29.664U PD=29.664U 
M25 vdd n5373_3 n5912_50 vdd TP L=0.18U W=10.872U AS=3.91392P AD=3.91392P 
+ PS=22.464U PD=22.464U 
M26 n5912_50 n5373_4 vdd vdd TP L=0.18U W=10.872U AS=3.91392P AD=3.91392P 
+ PS=22.464U PD=22.464U 
M27 n5912_31 n5373_6 vdd vdd TP L=0.18U W=10.872U AS=3.91392P AD=3.91392P 
+ PS=22.464U PD=22.464U 
M28 vdd n5334_4 n5373_2 vdd TP L=0.18U W=10.872U AS=3.91392P AD=3.91392P 
+ PS=22.464U PD=22.464U 
M29 vdd n5373_5 n5912_31 vdd TP L=0.18U W=10.872U AS=3.91392P AD=3.91392P 
+ PS=22.464U PD=22.464U 
M30 n5334_2 ss_2_1 vdd vdd TP L=0.18U W=10.872U AS=3.91392P AD=3.91392P 
+ PS=22.464U PD=22.464U 
M31 vdd n5111_96 s_3_24 vdd TP L=0.18U W=14.472U AS=5.20992P 
+ AD=5.20992P PS=29.664U PD=29.664U 
M32 s_3_24 n5111_99 vdd vdd TP L=0.18U W=14.472U AS=5.20992P 
+ AD=5.20992P PS=29.664U PD=29.664U 
M33 vdd n5111_100 s_3_21 vdd TP L=0.18U W=14.472U AS=5.20992P 
+ AD=5.20992P PS=29.664U PD=29.664U 
M34 s_3_21 n5111_101 vdd vdd TP L=0.18U W=14.472U AS=5.20992P 
+ AD=5.20992P PS=29.664U PD=29.664U 
M35 vdd n5111_81 s_3_19 vdd TP L=0.18U W=14.472U AS=5.20992P 
+ AD=5.20992P PS=29.664U PD=29.664U 
M36 s_3_19 n5111_84 vdd vdd TP L=0.18U W=14.472U AS=5.20992P 
+ AD=5.20992P PS=29.664U PD=29.664U 
M37 vdd n5111_85 s_3_17 vdd TP L=0.18U W=14.472U AS=5.20992P 
+ AD=5.20992P PS=29.664U PD=29.664U 
M38 s_3_17 n5111_86 vdd vdd TP L=0.18U W=14.472U AS=5.20992P 
+ AD=5.20992P PS=29.664U PD=29.664U 
M39 vdd n5111_66 s_3_15 vdd TP L=0.18U W=14.472U AS=5.20992P 
+ AD=5.20992P PS=29.664U PD=29.664U 
M40 s_3_15 n5111_69 vdd vdd TP L=0.18U W=14.472U AS=5.20992P AD=5.20992P 
+ PS=29.664U PD=29.664U 
M41 vdd n5111_70 s_3_13 vdd TP L=0.18U W=14.472U AS=5.20992P AD=5.20992P 
+ PS=29.664U PD=29.664U 
M42 s_3_13 n5111_71 vdd vdd TP L=0.18U W=14.472U AS=5.20992P AD=5.20992P 
+ PS=29.664U PD=29.664U 
M43 vdd n5111_51 s_3_11 vdd TP L=0.18U W=14.472U AS=5.20992P AD=5.20992P 
+ PS=29.664U PD=29.664U 
M44 s_3_11 n5111_54 vdd vdd TP L=0.18U W=14.472U AS=5.20992P AD=5.20992P 
+ PS=29.664U PD=29.664U 
M45 vdd n5111_55 s_3_9 vdd TP L=0.18U W=14.472U AS=5.20992P AD=5.20992P 
+ PS=29.664U PD=29.664U 
M46 s_3_9 n5111_56 vdd vdd TP L=0.18U W=14.472U AS=5.20992P AD=5.20992P 
+ PS=29.664U PD=29.664U 
M47 vdd n5111_16 s_3_7 vdd TP L=0.18U W=14.472U AS=5.20992P AD=5.20992P 
+ PS=29.664U PD=29.664U 
M48 s_3_7 n5111_19 vdd vdd TP L=0.18U W=14.472U AS=5.20992P AD=5.20992P 
+ PS=29.664U PD=29.664U 
M49 vdd n5111_20 s_3_5 vdd TP L=0.18U W=14.472U AS=5.20992P AD=5.20992P 
+ PS=29.664U PD=29.664U 
M50 s_3_5 n5111_21 vdd vdd TP L=0.18U W=14.472U AS=5.20992P AD=5.20992P 
+ PS=29.664U PD=29.664U 
M51 vdd n5111_1 s_3_3 vdd TP L=0.18U W=14.472U AS=5.20992P AD=5.20992P 
+ PS=29.664U PD=29.664U 
M52 s_3_3 n5111_4 vdd vdd TP L=0.18U W=14.472U AS=5.20992P AD=5.20992P 
+ PS=29.664U PD=29.664U 
M53 vdd n5111_5 s_3_1 vdd TP L=0.18U W=14.472U AS=5.20992P AD=5.20992P 
+ PS=29.664U PD=29.664U 
M54 s_3_1 n5111_6 vdd vdd TP L=0.18U W=14.472U AS=5.20992P AD=5.20992P 
+ PS=29.664U PD=29.664U 
M55 vdd n4572_3 n5111_50 vdd TP L=0.18U W=10.872U AS=3.91392P 
+ AD=3.91392P PS=22.464U PD=22.464U 
M56 n5111_50 n4572_4 vdd vdd TP L=0.18U W=10.872U AS=3.91392P 
+ AD=3.91392P PS=22.464U PD=22.464U 
M57 n5111_31 n4572_6 vdd vdd TP L=0.18U W=10.872U AS=3.91392P 
+ AD=3.91392P PS=22.464U PD=22.464U 
M58 vdd n4533_4 n4572_2 vdd TP L=0.18U W=10.872U AS=3.91392P AD=3.91392P 
+ PS=22.464U PD=22.464U 
M59 vdd n4572_5 n5111_31 vdd TP L=0.18U W=10.872U AS=3.91392P 
+ AD=3.91392P PS=22.464U PD=22.464U 
M60 n4533_2 ss_3_3 vdd vdd TP L=0.18U W=10.872U AS=3.91392P AD=3.91392P 
+ PS=22.464U PD=22.464U 
M61 sel_1 vdd vdd vdd TP L=0.18U W=14.472U AS=5.20992P 
+ AD=5.20992P PS=29.664U PD=29.664U 
M62 vdd vdd sel_1 vdd TP L=0.18U W=14.472U AS=5.20992P 
+ AD=5.20992P PS=29.664U PD=29.664U 
M63 sel_3 vdd vdd vdd TP L=0.18U W=14.472U AS=5.20992P 
+ AD=5.20992P PS=29.664U PD=29.664U 
M64 vdd vdd sel_3 vdd TP L=0.18U W=14.472U AS=5.20992P 
+ AD=5.20992P PS=29.664U PD=29.664U 
M65 vdd sel_10 n2124_10 vdd TP L=0.18U W=4.932U AS=1.77552P AD=1.77552P 
+ PS=10.584U PD=10.584U 
M66 selsel_67 n2124_8 vdd vdd TP L=0.18U W=10.332U AS=3.71952P 
+ AD=3.71952P PS=21.384U PD=21.384U 
M67 vdd n2124_7 selsel_67 vdd TP L=0.18U W=10.332U AS=3.71952P 
+ AD=3.71952P PS=21.384U PD=21.384U 
M68 vdd vdd ck_3 vdd TP L=0.18U W=14.472U AS=5.20992P AD=5.20992P 
+ PS=29.664U PD=29.664U 
M69 ck_3 vdd vdd vdd TP L=0.18U W=14.472U AS=5.20992P AD=5.20992P 
+ PS=29.664U PD=29.664U 
M70 vdd vdd ck_1 vdd TP L=0.18U W=14.472U AS=5.20992P AD=5.20992P 
+ PS=29.664U PD=29.664U 
M71 ck_1 vdd vdd vdd TP L=0.18U W=14.472U AS=5.20992P AD=5.20992P 
+ PS=29.664U PD=29.664U 
M72 p17_logic_ck_60 n1874_19 vdd vdd TP L=0.18U W=10.332U AS=3.71952P 
+ AD=3.71952P PS=21.384U PD=21.384U 
M73 vdd n1874_20 p17_logic_ck_84 vdd TP L=0.18U W=10.332U AS=3.71952P 
+ AD=3.71952P PS=21.384U PD=21.384U 
M74 p17_logic_ck_84 n1874_21 vdd vdd TP L=0.18U W=10.332U AS=3.71952P 
+ AD=3.71952P PS=21.384U PD=21.384U 
M75 p17_logic_ck_12 n1874_15 vdd vdd TP L=0.18U W=10.332U AS=3.71952P 
+ AD=3.71952P PS=21.384U PD=21.384U 
M76 vdd n1874_16 p17_logic_ck_36 vdd TP L=0.18U W=10.332U AS=3.71952P 
+ AD=3.71952P PS=21.384U PD=21.384U 
M77 p17_logic_ck_36 n1874_17 vdd vdd TP L=0.18U W=10.332U AS=3.71952P 
+ AD=3.71952P PS=21.384U PD=21.384U 
M78 vdd n1874_18 p17_logic_ck_60 vdd TP L=0.18U W=10.332U AS=3.71952P 
+ AD=3.71952P PS=21.384U PD=21.384U 
M79 vdd n1874_14 p17_logic_ck_12 vdd TP L=0.18U W=10.332U AS=3.71952P 
+ AD=3.71952P PS=21.384U PD=21.384U 
M80 vdd ck_10 n1874_22 vdd TP L=0.18U W=4.932U AS=1.77552P AD=1.77552P 
+ PS=10.584U PD=10.584U 
M81 n1874_24 ck_9 vdd vdd TP L=0.18U W=4.932U AS=1.77552P AD=1.77552P 
+ PS=10.584U PD=10.584U 
M82 vdd ck_8 n1874_24 vdd TP L=0.18U W=4.932U AS=1.77552P AD=1.77552P 
+ PS=10.584U PD=10.584U 
M83 n1874_26 ck_7 vdd vdd TP L=0.18U W=4.932U AS=1.77552P AD=1.77552P 
+ PS=10.584U PD=10.584U 
M84 a_0_2 vdd vdd vdd TP L=0.18U W=14.472U AS=5.20992P AD=5.20992P 
+ PS=29.664U PD=29.664U 
M85 vdd vdd a_0_2 vdd TP L=0.18U W=14.472U AS=5.20992P AD=5.20992P 
+ PS=29.664U PD=29.664U 
M86 a_0_4 vdd vdd vdd TP L=0.18U W=14.472U AS=5.20992P AD=5.20992P 
+ PS=29.664U PD=29.664U 
M87 vdd vdd a_0_4 vdd TP L=0.18U W=14.472U AS=5.20992P AD=5.20992P 
+ PS=29.664U PD=29.664U 
M88 vdd a_0_6 n5983_9 vdd TP L=0.18U W=4.932U AS=1.77552P AD=1.77552P 
+ PS=10.584U PD=10.584U 
M89 aa_0_1 n5983_4 vdd vdd TP L=0.18U W=10.332U AS=3.71952P AD=3.71952P 
+ PS=21.384U PD=21.384U 
M90 vdd n5983_3 aa_0_1 vdd TP L=0.18U W=10.332U AS=3.71952P AD=3.71952P 
+ PS=21.384U PD=21.384U 
M91 a_1_2 vdd vdd vdd TP L=0.18U W=14.472U AS=5.20992P AD=5.20992P 
+ PS=29.664U PD=29.664U 
M92 vdd vdd a_1_2 vdd TP L=0.18U W=14.472U AS=5.20992P AD=5.20992P 
+ PS=29.664U PD=29.664U 
M93 a_1_4 vdd vdd vdd TP L=0.18U W=14.472U AS=5.20992P AD=5.20992P 
+ PS=29.664U PD=29.664U 
M94 vdd vdd a_1_4 vdd TP L=0.18U W=14.472U AS=5.20992P AD=5.20992P 
+ PS=29.664U PD=29.664U 
M95 vdd a_1_6 n5139_9 vdd TP L=0.18U W=4.932U AS=1.77552P AD=1.77552P 
+ PS=10.584U PD=10.584U 
M96 aa_1_1 n5139_4 vdd vdd TP L=0.18U W=10.332U AS=3.71952P AD=3.71952P 
+ PS=21.384U PD=21.384U 
M97 vdd n5139_3 aa_1_1 vdd TP L=0.18U W=10.332U AS=3.71952P AD=3.71952P 
+ PS=21.384U PD=21.384U 
M98 a_2_2 vdd vdd vdd TP L=0.18U W=14.472U AS=5.20992P 
+ AD=5.20992P PS=29.664U PD=29.664U 
M99 vdd vdd a_2_2 vdd TP L=0.18U W=14.472U AS=5.20992P 
+ AD=5.20992P PS=29.664U PD=29.664U 
M100 a_2_4 vdd vdd vdd TP L=0.18U W=14.472U AS=5.20992P 
+ AD=5.20992P PS=29.664U PD=29.664U 
M101 vdd vdd a_2_4 vdd TP L=0.18U W=14.472U AS=5.20992P 
+ AD=5.20992P PS=29.664U PD=29.664U 
M102 vdd a_2_6 n3019_9 vdd TP L=0.18U W=4.932U AS=1.77552P AD=1.77552P 
+ PS=10.584U PD=10.584U 
M103 aa_2_15 n3019_4 vdd vdd TP L=0.18U W=10.332U AS=3.71952P 
+ AD=3.71952P PS=21.384U PD=21.384U 
M104 vdd n3019_3 aa_2_15 vdd TP L=0.18U W=10.332U AS=3.71952P 
+ AD=3.71952P PS=21.384U PD=21.384U 
M105 a_3_2 vdd vdd vdd TP L=0.18U W=14.472U AS=5.20992P 
+ AD=5.20992P PS=29.664U PD=29.664U 
M106 vdd vdd a_3_2 vdd TP L=0.18U W=14.472U AS=5.20992P 
+ AD=5.20992P PS=29.664U PD=29.664U 
M107 a_3_4 vdd vdd vdd TP L=0.18U W=14.472U AS=5.20992P 
+ AD=5.20992P PS=29.664U PD=29.664U 
M108 vdd vdd a_3_4 vdd TP L=0.18U W=14.472U AS=5.20992P 
+ AD=5.20992P PS=29.664U PD=29.664U 
M109 vdd a_3_6 n1981_9 vdd TP L=0.18U W=4.932U AS=1.77552P AD=1.77552P 
+ PS=10.584U PD=10.584U 
M110 aa_3_20 n1981_4 vdd vdd TP L=0.18U W=10.332U AS=3.71952P 
+ AD=3.71952P PS=21.384U PD=21.384U 
M111 vdd n1981_3 aa_3_20 vdd TP L=0.18U W=10.332U AS=3.71952P 
+ AD=3.71952P PS=21.384U PD=21.384U 
M112 b_0_2 vdd vdd vdd TP L=0.18U W=14.472U AS=5.20992P 
+ AD=5.20992P PS=29.664U PD=29.664U 
M113 vdd vdd b_0_2 vdd TP L=0.18U W=14.472U AS=5.20992P 
+ AD=5.20992P PS=29.664U PD=29.664U 
M114 b_0_4 vdd vdd vdd TP L=0.18U W=14.472U AS=5.20992P 
+ AD=5.20992P PS=29.664U PD=29.664U 
M115 vdd vdd b_0_4 vdd TP L=0.18U W=14.472U AS=5.20992P 
+ AD=5.20992P PS=29.664U PD=29.664U 
M116 vdd b_0_6 n1644_9 vdd TP L=0.18U W=4.932U AS=1.77552P AD=1.77552P 
+ PS=10.584U PD=10.584U 
M117 bb_0_39 n1644_4 vdd vdd TP L=0.18U W=10.332U AS=3.71952P 
+ AD=3.71952P PS=21.384U PD=21.384U 
M118 vdd n1644_3 bb_0_39 vdd TP L=0.18U W=10.332U AS=3.71952P 
+ AD=3.71952P PS=21.384U PD=21.384U 
M119 n6442_1 p17_logic_ck_3 vdd vdd TP L=0.18U W=7.272U AS=2.61792P 
+ AD=2.61792P PS=15.264U PD=15.264U 
M120 clock_2 n6442_2 vdd vdd TP L=0.18U W=6.192U AS=2.22912P AD=2.22912P 
+ PS=13.104U PD=13.104U 
M121 vdd n6442_3 clock_1 vdd TP L=0.18U W=6.192U AS=2.22912P AD=2.22912P 
+ PS=13.104U PD=13.104U 
M122 clock_1 n6442_12 vdd vdd TP L=0.18U W=6.192U AS=2.22912P AD=2.22912P 
+ PS=13.104U PD=13.104U 
M123 vdd n6442_4 clock_3 vdd TP L=0.18U W=6.192U AS=2.22912P AD=2.22912P 
+ PS=13.104U PD=13.104U 
M124 clock_3 n6442_5 vdd vdd TP L=0.18U W=6.192U AS=2.22912P AD=2.22912P 
+ PS=13.104U PD=13.104U 
M125 b_1_7 vdd vdd vdd TP L=0.18U W=14.472U AS=5.20992P 
+ AD=5.20992P PS=29.664U PD=29.664U 
M126 vdd vdd b_1_7 vdd TP L=0.18U W=14.472U AS=5.20992P 
+ AD=5.20992P PS=29.664U PD=29.664U 
M127 b_1_8 vdd vdd vdd TP L=0.18U W=14.472U AS=5.20992P 
+ AD=5.20992P PS=29.664U PD=29.664U 
M128 vdd vdd b_1_8 vdd TP L=0.18U W=14.472U AS=5.20992P 
+ AD=5.20992P PS=29.664U PD=29.664U 
M129 vdd b_1_6 n1625_13 vdd TP L=0.18U W=4.932U AS=1.77552P AD=1.77552P 
+ PS=10.584U PD=10.584U 
M130 bb_1_57 n1625_12 vdd vdd TP L=0.18U W=10.332U AS=3.71952P 
+ AD=3.71952P PS=21.384U PD=21.384U 
M131 vdd n1625_11 bb_1_57 vdd TP L=0.18U W=10.332U AS=3.71952P 
+ AD=3.71952P PS=21.384U PD=21.384U 
M132 b_2_7 vdd vdd vdd TP L=0.18U W=14.472U AS=5.20992P 
+ AD=5.20992P PS=29.664U PD=29.664U 
M133 vdd vdd b_2_7 vdd TP L=0.18U W=14.472U AS=5.20992P 
+ AD=5.20992P PS=29.664U PD=29.664U 
M134 b_2_8 vdd vdd vdd TP L=0.18U W=14.472U AS=5.20992P 
+ AD=5.20992P PS=29.664U PD=29.664U 
M135 vdd vdd b_2_8 vdd TP L=0.18U W=14.472U AS=5.20992P 
+ AD=5.20992P PS=29.664U PD=29.664U 
M136 vdd b_2_6 n1496_13 vdd TP L=0.18U W=4.932U AS=1.77552P AD=1.77552P 
+ PS=10.584U PD=10.584U 
M137 bb_2_51 n1496_12 vdd vdd TP L=0.18U W=10.332U AS=3.71952P 
+ AD=3.71952P PS=21.384U PD=21.384U 
M138 vdd n1496_11 bb_2_51 vdd TP L=0.18U W=10.332U AS=3.71952P 
+ AD=3.71952P PS=21.384U PD=21.384U 
M139 b_3_7 vdd vdd vdd TP L=0.18U W=14.472U AS=5.20992P 
+ AD=5.20992P PS=29.664U PD=29.664U 
M140 vdd vdd b_3_7 vdd TP L=0.18U W=14.472U AS=5.20992P 
+ AD=5.20992P PS=29.664U PD=29.664U 
M141 b_3_8 vdd vdd vdd TP L=0.18U W=14.472U AS=5.20992P 
+ AD=5.20992P PS=29.664U PD=29.664U 
M142 vdd vdd b_3_8 vdd TP L=0.18U W=14.472U AS=5.20992P 
+ AD=5.20992P PS=29.664U PD=29.664U 
M143 vdd b_3_6 n1367_13 vdd TP L=0.18U W=4.932U AS=1.77552P AD=1.77552P 
+ PS=10.584U PD=10.584U 
M144 bb_3_26 n1367_12 vdd vdd TP L=0.18U W=10.332U AS=3.71952P 
+ AD=3.71952P PS=21.384U PD=21.384U 
M145 vdd n1367_11 bb_3_26 vdd TP L=0.18U W=10.332U AS=3.71952P 
+ AD=3.71952P PS=21.384U PD=21.384U 
M146 vdd n1110_56 s_0_12 vdd TP L=0.18U W=14.472U AS=5.20992P 
+ AD=5.20992P PS=29.664U PD=29.664U 
M147 s_0_12 n1110_59 vdd vdd TP L=0.18U W=14.472U AS=5.20992P 
+ AD=5.20992P PS=29.664U PD=29.664U 
M148 vdd n1110_60 s_0_11 vdd TP L=0.18U W=14.472U AS=5.20992P 
+ AD=5.20992P PS=29.664U PD=29.664U 
M149 s_0_11 n1110_61 vdd vdd TP L=0.18U W=14.472U AS=5.20992P 
+ AD=5.20992P PS=29.664U PD=29.664U 
M150 vdd n1110_50 s_0_10 vdd TP L=0.18U W=14.472U AS=5.20992P 
+ AD=5.20992P PS=29.664U PD=29.664U 
M151 s_0_10 n1110_53 vdd vdd TP L=0.18U W=14.472U AS=5.20992P 
+ AD=5.20992P PS=29.664U PD=29.664U 
M152 vdd n1110_54 s_0_9 vdd TP L=0.18U W=14.472U AS=5.20992P 
+ AD=5.20992P PS=29.664U PD=29.664U 
M153 s_0_9 n1110_55 vdd vdd TP L=0.18U W=14.472U AS=5.20992P 
+ AD=5.20992P PS=29.664U PD=29.664U 
M154 vdd n1110_44 s_0_8 vdd TP L=0.18U W=14.472U AS=5.20992P 
+ AD=5.20992P PS=29.664U PD=29.664U 
M155 s_0_8 n1110_47 vdd vdd TP L=0.18U W=14.472U AS=5.20992P 
+ AD=5.20992P PS=29.664U PD=29.664U 
M156 vdd n1110_48 s_0_7 vdd TP L=0.18U W=14.472U AS=5.20992P 
+ AD=5.20992P PS=29.664U PD=29.664U 
M157 s_0_7 n1110_49 vdd vdd TP L=0.18U W=14.472U AS=5.20992P 
+ AD=5.20992P PS=29.664U PD=29.664U 
M158 vdd n1110_38 s_0_6 vdd TP L=0.18U W=14.472U AS=5.20992P 
+ AD=5.20992P PS=29.664U PD=29.664U 
M159 s_0_6 n1110_41 vdd vdd TP L=0.18U W=14.472U AS=5.20992P 
+ AD=5.20992P PS=29.664U PD=29.664U 
M160 vdd n1110_42 s_0_5 vdd TP L=0.18U W=14.472U AS=5.20992P 
+ AD=5.20992P PS=29.664U PD=29.664U 
M161 s_0_5 n1110_43 vdd vdd TP L=0.18U W=14.472U AS=5.20992P 
+ AD=5.20992P PS=29.664U PD=29.664U 
M162 vdd n1110_32 s_0_4 vdd TP L=0.18U W=14.472U AS=5.20992P 
+ AD=5.20992P PS=29.664U PD=29.664U 
M163 s_0_4 n1110_35 vdd vdd TP L=0.18U W=14.472U AS=5.20992P 
+ AD=5.20992P PS=29.664U PD=29.664U 
M164 vdd n1110_36 s_0_3 vdd TP L=0.18U W=14.472U AS=5.20992P 
+ AD=5.20992P PS=29.664U PD=29.664U 
M165 s_0_3 n1110_37 vdd vdd TP L=0.18U W=14.472U AS=5.20992P 
+ AD=5.20992P PS=29.664U PD=29.664U 
M166 vdd n1110_26 s_0_2 vdd TP L=0.18U W=14.472U AS=5.20992P 
+ AD=5.20992P PS=29.664U PD=29.664U 
M167 s_0_2 n1110_29 vdd vdd TP L=0.18U W=14.472U AS=5.20992P 
+ AD=5.20992P PS=29.664U PD=29.664U 
M168 vdd n1110_30 s_0_1 vdd TP L=0.18U W=14.472U AS=5.20992P 
+ AD=5.20992P PS=29.664U PD=29.664U 
M169 s_0_1 n1110_31 vdd vdd TP L=0.18U W=14.472U AS=5.20992P 
+ AD=5.20992P PS=29.664U PD=29.664U 
M170 vdd n1228_6 n1110_25 vdd TP L=0.18U W=10.872U AS=3.91392P 
+ AD=3.91392P PS=22.464U PD=22.464U 
M171 n1110_25 n1228_7 vdd vdd TP L=0.18U W=10.872U AS=3.91392P 
+ AD=3.91392P PS=22.464U PD=22.464U 
M172 n1110_24 n1228_9 vdd vdd TP L=0.18U W=10.872U AS=3.91392P 
+ AD=3.91392P PS=22.464U PD=22.464U 
M173 vdd n1191_3 n1228_13 vdd TP L=0.18U W=10.872U AS=3.91392P 
+ AD=3.91392P PS=22.464U PD=22.464U 
M174 vdd n1228_8 n1110_24 vdd TP L=0.18U W=10.872U AS=3.91392P 
+ AD=3.91392P PS=22.464U PD=22.464U 
M175 n1191_5 ss_0_24 vdd vdd TP L=0.18U W=10.872U AS=3.91392P 
+ AD=3.91392P PS=22.464U PD=22.464U 
M176 vdd n939_56 s_1_12 vdd TP L=0.18U W=14.472U AS=5.20992P 
+ AD=5.20992P PS=29.664U PD=29.664U 
M177 s_1_12 n939_59 vdd vdd TP L=0.18U W=14.472U AS=5.20992P 
+ AD=5.20992P PS=29.664U PD=29.664U 
M178 vdd n939_60 s_1_11 vdd TP L=0.18U W=14.472U AS=5.20992P 
+ AD=5.20992P PS=29.664U PD=29.664U 
M179 s_1_11 n939_61 vdd vdd TP L=0.18U W=14.472U AS=5.20992P 
+ AD=5.20992P PS=29.664U PD=29.664U 
M180 vdd n939_50 s_1_10 vdd TP L=0.18U W=14.472U AS=5.20992P 
+ AD=5.20992P PS=29.664U PD=29.664U 
M181 s_1_10 n939_53 vdd vdd TP L=0.18U W=14.472U AS=5.20992P 
+ AD=5.20992P PS=29.664U PD=29.664U 
M182 vdd n939_54 s_1_9 vdd TP L=0.18U W=14.472U AS=5.20992P AD=5.20992P 
+ PS=29.664U PD=29.664U 
M183 s_1_9 n939_55 vdd vdd TP L=0.18U W=14.472U AS=5.20992P AD=5.20992P 
+ PS=29.664U PD=29.664U 
M184 vdd n939_44 s_1_8 vdd TP L=0.18U W=14.472U AS=5.20992P AD=5.20992P 
+ PS=29.664U PD=29.664U 
M185 s_1_8 n939_47 vdd vdd TP L=0.18U W=14.472U AS=5.20992P AD=5.20992P 
+ PS=29.664U PD=29.664U 
M186 vdd n939_48 s_1_7 vdd TP L=0.18U W=14.472U AS=5.20992P AD=5.20992P 
+ PS=29.664U PD=29.664U 
M187 s_1_7 n939_49 vdd vdd TP L=0.18U W=14.472U AS=5.20992P AD=5.20992P 
+ PS=29.664U PD=29.664U 
M188 vdd n939_38 s_1_6 vdd TP L=0.18U W=14.472U AS=5.20992P AD=5.20992P 
+ PS=29.664U PD=29.664U 
M189 s_1_6 n939_41 vdd vdd TP L=0.18U W=14.472U AS=5.20992P AD=5.20992P 
+ PS=29.664U PD=29.664U 
M190 vdd n939_42 s_1_5 vdd TP L=0.18U W=14.472U AS=5.20992P AD=5.20992P 
+ PS=29.664U PD=29.664U 
M191 s_1_5 n939_43 vdd vdd TP L=0.18U W=14.472U AS=5.20992P AD=5.20992P 
+ PS=29.664U PD=29.664U 
M192 vdd n939_32 s_1_4 vdd TP L=0.18U W=14.472U AS=5.20992P AD=5.20992P 
+ PS=29.664U PD=29.664U 
M193 s_1_4 n939_35 vdd vdd TP L=0.18U W=14.472U AS=5.20992P AD=5.20992P 
+ PS=29.664U PD=29.664U 
M194 vdd n939_36 s_1_3 vdd TP L=0.18U W=14.472U AS=5.20992P AD=5.20992P 
+ PS=29.664U PD=29.664U 
M195 s_1_3 n939_37 vdd vdd TP L=0.18U W=14.472U AS=5.20992P AD=5.20992P 
+ PS=29.664U PD=29.664U 
M196 vdd n939_26 s_1_2 vdd TP L=0.18U W=14.472U AS=5.20992P AD=5.20992P 
+ PS=29.664U PD=29.664U 
M197 s_1_2 n939_29 vdd vdd TP L=0.18U W=14.472U AS=5.20992P AD=5.20992P 
+ PS=29.664U PD=29.664U 
M198 vdd n939_30 s_1_1 vdd TP L=0.18U W=14.472U AS=5.20992P AD=5.20992P 
+ PS=29.664U PD=29.664U 
M199 s_1_1 n939_31 vdd vdd TP L=0.18U W=14.472U AS=5.20992P AD=5.20992P 
+ PS=29.664U PD=29.664U 
M200 vdd n817_6 n939_25 vdd TP L=0.18U W=10.872U AS=3.91392P AD=3.91392P 
+ PS=22.464U PD=22.464U 
M201 n939_25 n817_7 vdd vdd TP L=0.18U W=10.872U AS=3.91392P AD=3.91392P 
+ PS=22.464U PD=22.464U 
M202 n939_24 n817_9 vdd vdd TP L=0.18U W=10.872U AS=3.91392P AD=3.91392P 
+ PS=22.464U PD=22.464U 
M203 vdd n780_3 n817_13 vdd TP L=0.18U W=10.872U AS=3.91392P AD=3.91392P 
+ PS=22.464U PD=22.464U 
M204 vdd n817_8 n939_24 vdd TP L=0.18U W=10.872U AS=3.91392P AD=3.91392P 
+ PS=22.464U PD=22.464U 
M205 n780_5 ss_1_11 vdd vdd TP L=0.18U W=10.872U AS=3.91392P AD=3.91392P 
+ PS=22.464U PD=22.464U 
M206 n2142 core_mux_3_14 n2333_5 vdd TP L=0.18U W=4.212U AS=1.51632P 
+ AD=1.51632P PS=9.144U PD=9.144U 
M207 vdd bb_3_1 n2142 vdd TP L=0.18U W=4.212U AS=1.51632P AD=1.51632P 
+ PS=9.144U PD=9.144U 
M208 vdd bb_3_8 n2145_1 vdd TP L=0.18U W=4.212U AS=1.51632P AD=1.51632P 
+ PS=9.144U PD=9.144U 
M209 n2145 core_mux_3_22 vdd vdd TP L=0.18U W=4.212U AS=1.51632P 
+ AD=1.51632P PS=9.144U PD=9.144U 
M210 core_int_9_9 n2333_2 n2145 vdd TP L=0.18U W=4.212U AS=1.51632P 
+ AD=1.51632P PS=9.144U PD=9.144U 
M211 n2160 core_int_9_20 n2381_5 vdd TP L=0.18U W=4.212U AS=1.51632P 
+ AD=1.51632P PS=9.144U PD=9.144U 
M212 vdd core_carry_2_23 n2160 vdd TP L=0.18U W=4.212U AS=1.51632P 
+ AD=1.51632P PS=9.144U PD=9.144U 
M213 vdd core_carry_2_30 n2151_1 vdd TP L=0.18U W=4.212U AS=1.51632P 
+ AD=1.51632P PS=9.144U PD=9.144U 
M214 n2151 core_int_9_23 vdd vdd TP L=0.18U W=4.212U AS=1.51632P 
+ AD=1.51632P PS=9.144U PD=9.144U 
M215 ss_3_36 n2381_2 n2151 vdd TP L=0.18U W=4.212U AS=1.51632P AD=1.51632P 
+ PS=9.144U PD=9.144U 
M216 n2157 core_int_7_3 n2163 vdd TP L=0.18U W=2.952U AS=1.06272P AD=1.06272P 
+ PS=6.624U PD=6.624U 
M217 n2400_6 core_int_8_14 n2157 vdd TP L=0.18U W=2.952U AS=1.06272P 
+ AD=1.06272P PS=6.624U PD=6.624U 
M218 vdd n2400_3 core_carry_2_2 vdd TP L=0.18U W=2.232U AS=0.80352P 
+ AD=0.80352P PS=5.184U PD=5.184U 
M219 n2163 core_int_6_18 vdd vdd TP L=0.18U W=2.952U AS=1.06272P 
+ AD=1.06272P PS=6.624U PD=6.624U 
M220 n2166 core_int_5_15 n2412_5 vdd TP L=0.18U W=4.212U AS=1.51632P 
+ AD=1.51632P PS=9.144U PD=9.144U 
M221 vdd core_carry_1_47 n2166 vdd TP L=0.18U W=4.212U AS=1.51632P 
+ AD=1.51632P PS=9.144U PD=9.144U 
M222 vdd core_carry_1_54 n2169_1 vdd TP L=0.18U W=4.212U AS=1.51632P 
+ AD=1.51632P PS=9.144U PD=9.144U 
M223 n2169 core_int_5_23 vdd vdd TP L=0.18U W=4.212U AS=1.51632P 
+ AD=1.51632P PS=9.144U PD=9.144U 
M224 ss_2_35 n2412_2 n2169 vdd TP L=0.18U W=4.212U AS=1.51632P AD=1.51632P 
+ PS=9.144U PD=9.144U 
M225 vdd n2427_2 core_int_8_7 vdd TP L=0.18U W=2.232U AS=0.80352P 
+ AD=0.80352P PS=5.184U PD=5.184U 
M226 vdd bb_2_27 n2427_5 vdd TP L=0.18U W=1.152U AS=0.41472P AD=0.41472P 
+ PS=3.024U PD=3.024U 
M227 n2427_5 core_carry_1_27 vdd vdd TP L=0.18U W=1.152U AS=0.41472P 
+ AD=0.41472P PS=3.024U PD=3.024U 
M228 vdd n2447_2 core_int_7_18 vdd TP L=0.18U W=2.232U AS=0.80352P 
+ AD=0.80352P PS=5.184U PD=5.184U 
M229 vdd core_mux_2_54 n2447_5 vdd TP L=0.18U W=1.152U AS=0.41472P 
+ AD=0.41472P PS=3.024U PD=3.024U 
M230 n2447_5 core_carry_1_16 vdd vdd TP L=0.18U W=1.152U AS=0.41472P 
+ AD=0.41472P PS=3.024U PD=3.024U 
M231 n2178 core_int_3_3 n2175 vdd TP L=0.18U W=2.952U AS=1.06272P AD=1.06272P 
+ PS=6.624U PD=6.624U 
M232 n2489_6 core_int_4_14 n2178 vdd TP L=0.18U W=2.952U AS=1.06272P 
+ AD=1.06272P PS=6.624U PD=6.624U 
M233 vdd n2489_3 core_carry_1_7 vdd TP L=0.18U W=2.232U AS=0.80352P 
+ AD=0.80352P PS=5.184U PD=5.184U 
M234 n2175 core_int_2_14 vdd vdd TP L=0.18U W=2.952U AS=1.06272P 
+ AD=1.06272P PS=6.624U PD=6.624U 
M235 vdd n2503_2 core_int_4_7 vdd TP L=0.18U W=2.232U AS=0.80352P 
+ AD=0.80352P PS=5.184U PD=5.184U 
M236 vdd bb_1_33 n2503_5 vdd TP L=0.18U W=1.152U AS=0.41472P AD=0.41472P 
+ PS=3.024U PD=3.024U 
M237 n2503_5 core_carry_0_48 vdd vdd TP L=0.18U W=1.152U AS=0.41472P 
+ AD=0.41472P PS=3.024U PD=3.024U 
M238 vdd n2517_2 core_int_3_18 vdd TP L=0.18U W=2.232U AS=0.80352P 
+ AD=0.80352P PS=5.184U PD=5.184U 
M239 vdd core_mux_1_39 n2517_5 vdd TP L=0.18U W=1.152U AS=0.41472P 
+ AD=0.41472P PS=3.024U PD=3.024U 
M240 n2517_5 core_carry_0_33 vdd vdd TP L=0.18U W=1.152U AS=0.41472P 
+ AD=0.41472P PS=3.024U PD=3.024U 
M241 n2566_2 n2624_13 vdd vdd TP L=0.18U W=2.232U AS=0.80352P AD=0.80352P 
+ PS=5.184U PD=5.184U 
M242 vdd core_l2_dff_m_3 n2624_2 vdd TP L=0.18U W=0.972U AS=0.34992P 
+ AD=0.34992P PS=2.664U PD=2.664U 
M243 n2593_6 clock_103 vdd vdd TP L=0.18U W=3.312U AS=1.19232P 
+ AD=1.19232P PS=7.344U PD=7.344U 
M244 core_l2_dff_s_2 n2561_3 vdd vdd TP L=0.72U W=0.432U AS=0.15552P 
+ AD=0.15552P PS=1.584U PD=1.584U 
M245 vdd core_l2_dff_s_8 n2561_5 vdd TP L=0.18U W=0.972U AS=0.34992P 
+ AD=0.34992P PS=2.664U PD=2.664U 
M246 core_regout_2_18 core_l2_dff_s_9 vdd vdd TP L=0.18U W=4.212U 
+ AS=1.51632P AD=1.51632P PS=9.144U PD=9.144U 
M247 core_l2_dff_m_2 n2624_5 vdd vdd TP L=0.72U W=0.432U AS=0.15552P 
+ AD=0.15552P PS=1.584U PD=1.584U 
M248 n2635_2 ss_2_17 vdd vdd TP L=0.18U W=2.232U AS=0.80352P AD=0.80352P 
+ PS=5.184U PD=5.184U 
M249 vdd n2646_2 core_carry_0_18 vdd TP L=0.18U W=2.232U AS=0.80352P 
+ AD=0.80352P PS=5.184U PD=5.184U 
M250 vdd core_mux_0_18 n2646_5 vdd TP L=0.18U W=1.152U AS=0.41472P 
+ AD=0.41472P PS=3.024U PD=3.024U 
M251 n2646_5 bb_0_12 vdd vdd TP L=0.18U W=1.152U AS=0.41472P AD=0.41472P 
+ PS=3.024U PD=3.024U 
M252 n2187 core_mux_0_28 n2733_5 vdd TP L=0.18U W=4.212U AS=1.51632P 
+ AD=1.51632P PS=9.144U PD=9.144U 
M253 vdd bb_0_1 n2187 vdd TP L=0.18U W=4.212U AS=1.51632P AD=1.51632P 
+ PS=9.144U PD=9.144U 
M254 vdd bb_0_8 n2181_1 vdd TP L=0.18U W=4.212U AS=1.51632P AD=1.51632P 
+ PS=9.144U PD=9.144U 
M255 n2181 core_mux_0_36 vdd vdd TP L=0.18U W=4.212U AS=1.51632P 
+ AD=1.51632P PS=9.144U PD=9.144U 
M256 ss_0_13 n2733_2 n2181 vdd TP L=0.18U W=4.212U AS=1.51632P AD=1.51632P 
+ PS=9.144U PD=9.144U 
M257 n2770_2 n2837_13 vdd vdd TP L=0.18U W=2.232U AS=0.80352P AD=0.80352P 
+ PS=5.184U PD=5.184U 
M258 vdd core_l0_dff_m_3 n2837_2 vdd TP L=0.18U W=0.972U AS=0.34992P 
+ AD=0.34992P PS=2.664U PD=2.664U 
M259 n2750_6 clock_112 vdd vdd TP L=0.18U W=3.312U AS=1.19232P 
+ AD=1.19232P PS=7.344U PD=7.344U 
M260 core_l0_dff_s_2 n2765_2 vdd vdd TP L=0.72U W=0.432U AS=0.15552P 
+ AD=0.15552P PS=1.584U PD=1.584U 
M261 vdd core_l0_dff_s_8 n2765_5 vdd TP L=0.18U W=0.972U AS=0.34992P 
+ AD=0.34992P PS=2.664U PD=2.664U 
M262 core_regout_0_18 core_l0_dff_s_9 vdd vdd TP L=0.18U W=4.212U 
+ AS=1.51632P AD=1.51632P PS=9.144U PD=9.144U 
M263 core_l0_dff_m_2 n2837_5 vdd vdd TP L=0.72U W=0.432U AS=0.15552P 
+ AD=0.15552P PS=1.584U PD=1.584U 
M264 n2848_2 ss_0_1 vdd vdd TP L=0.18U W=2.232U AS=0.80352P AD=0.80352P 
+ PS=5.184U PD=5.184U 
M265 vdd aa_3_5 n3051_2 vdd TP L=0.18U W=2.232U AS=0.80352P AD=0.80352P 
+ PS=5.184U PD=5.184U 
M266 n3051_1 core_nsel_49 vdd vdd TP L=0.18U W=2.232U AS=0.80352P 
+ AD=0.80352P PS=5.184U PD=5.184U 
M267 n3197_6 selsel_48 n3051_1 vdd TP L=0.18U W=2.232U AS=0.80352P 
+ AD=0.80352P PS=5.184U PD=5.184U 
M268 n3051 core_regout_3_22 n3197_6 vdd TP L=0.18U W=2.232U AS=0.80352P 
+ AD=0.80352P PS=5.184U PD=5.184U 
M269 core_mux_3_2 n3197_2 vdd vdd TP L=0.18U W=2.232U AS=0.80352P 
+ AD=0.80352P PS=5.184U PD=5.184U 
M270 n3245_2 n3282_13 vdd vdd TP L=0.18U W=2.232U AS=0.80352P AD=0.80352P 
+ PS=5.184U PD=5.184U 
M271 vdd core_l3_dff_m_3 n3282_2 vdd TP L=0.18U W=0.972U AS=0.34992P 
+ AD=0.34992P PS=2.664U PD=2.664U 
M272 n3223_6 clock_75 vdd vdd TP L=0.18U W=3.312U AS=1.19232P AD=1.19232P 
+ PS=7.344U PD=7.344U 
M273 core_l3_dff_s_2 n3212_3 vdd vdd TP L=0.72U W=0.432U AS=0.15552P 
+ AD=0.15552P PS=1.584U PD=1.584U 
M274 vdd core_l3_dff_s_8 n3212_5 vdd TP L=0.18U W=0.972U AS=0.34992P 
+ AD=0.34992P PS=2.664U PD=2.664U 
M275 core_regout_3_2 core_l3_dff_s_9 vdd vdd TP L=0.18U W=4.212U 
+ AS=1.51632P AD=1.51632P PS=9.144U PD=9.144U 
M276 core_l3_dff_m_2 n3282_5 vdd vdd TP L=0.72U W=0.432U AS=0.15552P 
+ AD=0.15552P PS=1.584U PD=1.584U 
M277 n3252_2 ss_3_18 vdd vdd TP L=0.18U W=2.232U AS=0.80352P AD=0.80352P 
+ PS=5.184U PD=5.184U 
M278 n3068 core_mux_2_11 n3407_5 vdd TP L=0.18U W=4.212U AS=1.51632P 
+ AD=1.51632P PS=9.144U PD=9.144U 
M279 vdd bb_2_14 n3068 vdd TP L=0.18U W=4.212U AS=1.51632P AD=1.51632P 
+ PS=9.144U PD=9.144U 
M280 vdd bb_2_21 n3062_1 vdd TP L=0.18U W=4.212U AS=1.51632P AD=1.51632P 
+ PS=9.144U PD=9.144U 
M281 n3062 core_mux_2_14 vdd vdd TP L=0.18U W=4.212U AS=1.51632P 
+ AD=1.51632P PS=9.144U PD=9.144U 
M282 core_int_5_2 n3407_2 n3062 vdd TP L=0.18U W=4.212U AS=1.51632P 
+ AD=1.51632P PS=9.144U PD=9.144U 
M283 vdd n3422_2 core_int_6_2 vdd TP L=0.18U W=2.232U AS=0.80352P 
+ AD=0.80352P PS=5.184U PD=5.184U 
M284 vdd core_mux_2_7 n3422_5 vdd TP L=0.18U W=1.152U AS=0.41472P 
+ AD=0.41472P PS=3.024U PD=3.024U 
M285 n3422_5 bb_2_1 vdd vdd TP L=0.18U W=1.152U AS=0.41472P AD=0.41472P 
+ PS=3.024U PD=3.024U 
M286 vdd aa_2_5 n3071_2 vdd TP L=0.18U W=2.232U AS=0.80352P AD=0.80352P 
+ PS=5.184U PD=5.184U 
M287 n3071_1 core_nsel_23 vdd vdd TP L=0.18U W=2.232U AS=0.80352P 
+ AD=0.80352P PS=5.184U PD=5.184U 
M288 n3558_6 selsel_23 n3071_1 vdd TP L=0.18U W=2.232U AS=0.80352P 
+ AD=0.80352P PS=5.184U PD=5.184U 
M289 n3071 core_regout_2_1 n3558_6 vdd TP L=0.18U W=2.232U AS=0.80352P 
+ AD=0.80352P PS=5.184U PD=5.184U 
M290 core_mux_2_2 n3558_2 vdd vdd TP L=0.18U W=2.232U AS=0.80352P 
+ AD=0.80352P PS=5.184U PD=5.184U 
M291 vdd selsel_33 core_nsel_32 vdd TP L=0.18U W=2.232U AS=0.80352P 
+ AD=0.80352P PS=5.184U PD=5.184U 
M292 vdd n3595_2 core_int_2_2 vdd TP L=0.18U W=2.232U AS=0.80352P 
+ AD=0.80352P PS=5.184U PD=5.184U 
M293 vdd core_mux_1_20 n3595_5 vdd TP L=0.18U W=1.152U AS=0.41472P 
+ AD=0.41472P PS=3.024U PD=3.024U 
M294 n3595_5 bb_1_22 vdd vdd TP L=0.18U W=1.152U AS=0.41472P AD=0.41472P 
+ PS=3.024U PD=3.024U 
M295 n3088 core_mux_1_7 n3746_5 vdd TP L=0.18U W=4.212U AS=1.51632P 
+ AD=1.51632P PS=9.144U PD=9.144U 
M296 vdd bb_1_5 n3088 vdd TP L=0.18U W=4.212U AS=1.51632P AD=1.51632P 
+ PS=9.144U PD=9.144U 
M297 vdd bb_1_2 n3082_1 vdd TP L=0.18U W=4.212U AS=1.51632P AD=1.51632P 
+ PS=9.144U PD=9.144U 
M298 n3082 core_mux_1_10 vdd vdd TP L=0.18U W=4.212U AS=1.51632P 
+ AD=1.51632P PS=9.144U PD=9.144U 
M299 core_int_1_29 n3746_2 n3082 vdd TP L=0.18U W=4.212U AS=1.51632P 
+ AD=1.51632P PS=9.144U PD=9.144U 
M300 vdd aa_1_16 n3091_2 vdd TP L=0.18U W=2.232U AS=0.80352P AD=0.80352P 
+ PS=5.184U PD=5.184U 
M301 n3091_1 core_nsel_13 vdd vdd TP L=0.18U W=2.232U AS=0.80352P 
+ AD=0.80352P PS=5.184U PD=5.184U 