
.subckt ex_m8x8 a_0 a_1 a_2 a_3 a_4 a_5 a_6 a_7 b_0 b_1 b_2 b_3 b_4 b_5 b_6 
+ b_7 p_0 p_1 p_2 p_3 p_4 p_5 p_6 p_7 p_8 p_9 p_10 p_11 p_12 p_13 p_14 p_15 
+ vdd vss 
Mtr_01824 n884 c_4_1_sum n864 vdd TP L=0.18U W=1.8U AS=0.648P AD=0.648P 
+ PS=4.32U PD=4.32U 
Mtr_01823 n864 cla_cell0_0_a vdd vdd TP L=0.18U W=1.8U AS=0.648P AD=0.648P 
+ PS=4.32U PD=4.32U 
Mtr_01822 cla_cell0_0_g n880 vdd vdd TP L=0.18U W=1.62U AS=0.5832P AD=0.5832P 
+ PS=3.96U PD=3.96U 
Mtr_01821 vdd c_4_1_sum n880 vdd TP L=0.18U W=1.44U AS=0.5184P AD=0.5184P 
+ PS=3.6U PD=3.6U 
Mtr_01820 n880 cla_cell0_0_a vdd vdd TP L=0.18U W=1.44U AS=0.5184P AD=0.5184P 
+ PS=3.6U PD=3.6U 
Mtr_01819 vdd n880 cla_cell0_0_g vdd TP L=0.18U W=1.62U AS=0.5832P AD=0.5832P 
+ PS=3.96U PD=3.96U 
Mtr_01818 vdd n884 p_6 vdd TP L=0.18U W=1.98U AS=0.7128P AD=0.7128P PS=4.68U 
+ PD=4.68U 
Mtr_01817 n794 c_4_2_sum n793 vdd TP L=0.18U W=1.8U AS=0.648P AD=0.648P 
+ PS=4.32U PD=4.32U 
Mtr_01816 n793 c_4_1_cout vdd vdd TP L=0.18U W=1.8U AS=0.648P AD=0.648P 
+ PS=4.32U PD=4.32U 
Mtr_01815 cla_cell0_1_g n791 vdd vdd TP L=0.18U W=1.62U AS=0.5832P AD=0.5832P 
+ PS=3.96U PD=3.96U 
Mtr_01814 vdd c_4_2_sum n791 vdd TP L=0.18U W=1.44U AS=0.5184P AD=0.5184P 
+ PS=3.6U PD=3.6U 
Mtr_01813 n791 c_4_1_cout vdd vdd TP L=0.18U W=1.44U AS=0.5184P AD=0.5184P 
+ PS=3.6U PD=3.6U 
Mtr_01812 vdd n791 cla_cell0_1_g vdd TP L=0.18U W=1.62U AS=0.5832P AD=0.5832P 
+ PS=3.96U PD=3.96U 
Mtr_01811 vdd n794 cla_cell0_1_p vdd TP L=0.18U W=1.98U AS=0.7128P AD=0.7128P 
+ PS=4.68U PD=4.68U 
Mtr_01810 vdd n704 cla_cell0_2_g vdd TP L=0.18U W=1.62U AS=0.5832P AD=0.5832P 
+ PS=3.96U PD=3.96U 
Mtr_01809 n704 c_4_3_sum vdd vdd TP L=0.18U W=1.44U AS=0.5184P AD=0.5184P 
+ PS=3.6U PD=3.6U 
Mtr_01808 vdd c_4_2_cout n704 vdd TP L=0.18U W=1.44U AS=0.5184P AD=0.5184P 
+ PS=3.6U PD=3.6U 
Mtr_01807 cla_cell0_2_g n704 vdd vdd TP L=0.18U W=1.62U AS=0.5832P AD=0.5832P 
+ PS=3.96U PD=3.96U 
Mtr_01806 vdd n708 cla_cell0_2_p vdd TP L=0.18U W=2.16U AS=0.7776P AD=0.7776P 
+ PS=5.04U PD=5.04U 
Mtr_01805 cla_cell0_2_pn cla_cell0_2_p vdd vdd TP L=0.18U W=2.16U AS=0.7776P 
+ AD=0.7776P PS=5.04U PD=5.04U 
Mtr_01804 n652 c_4_3_sum vdd vdd TP L=0.18U W=1.8U AS=0.648P AD=0.648P 
+ PS=4.32U PD=4.32U 
Mtr_01803 n708 c_4_2_cout n652 vdd TP L=0.18U W=1.8U AS=0.648P AD=0.648P 
+ PS=4.32U PD=4.32U 
Mtr_01802 n594 c_4_4_sum n650 vdd TP L=0.18U W=1.8U AS=0.648P AD=0.648P 
+ PS=4.32U PD=4.32U 
Mtr_01801 n650 c_4_3_cout vdd vdd TP L=0.18U W=1.8U AS=0.648P AD=0.648P 
+ PS=4.32U PD=4.32U 
Mtr_01800 cla_cell0_3_g n651 vdd vdd TP L=0.18U W=1.62U AS=0.5832P AD=0.5832P 
+ PS=3.96U PD=3.96U 
Mtr_01799 vdd c_4_4_sum n651 vdd TP L=0.18U W=1.44U AS=0.5184P AD=0.5184P 
+ PS=3.6U PD=3.6U 
Mtr_01798 n651 c_4_3_cout vdd vdd TP L=0.18U W=1.44U AS=0.5184P AD=0.5184P 
+ PS=3.6U PD=3.6U 
Mtr_01797 vdd n651 cla_cell0_3_g vdd TP L=0.18U W=1.62U AS=0.5832P AD=0.5832P 
+ PS=3.96U PD=3.96U 
Mtr_01796 vdd n594 cla_cell1_3_p1 vdd TP L=0.18U W=1.98U AS=0.7128P AD=0.7128P 
+ PS=4.68U PD=4.68U 
Mtr_01795 n542 c_4_4_cout n432 vdd TP L=0.18U W=1.8U AS=0.648P AD=0.648P 
+ PS=4.32U PD=4.32U 
Mtr_01794 n432 c_4_5_sum vdd vdd TP L=0.18U W=1.8U AS=0.648P AD=0.648P 
+ PS=4.32U PD=4.32U 
Mtr_01793 cla_cell0_4_g n538 vdd vdd TP L=0.18U W=1.62U AS=0.5832P AD=0.5832P 
+ PS=3.96U PD=3.96U 
Mtr_01792 vdd c_4_4_cout n538 vdd TP L=0.18U W=1.44U AS=0.5184P AD=0.5184P 
+ PS=3.6U PD=3.6U 
Mtr_01791 n538 c_4_5_sum vdd vdd TP L=0.18U W=1.44U AS=0.5184P AD=0.5184P 
+ PS=3.6U PD=3.6U 
Mtr_01790 vdd n538 cla_cell0_4_g vdd TP L=0.18U W=1.62U AS=0.5832P AD=0.5832P 
+ PS=3.96U PD=3.96U 
Mtr_01789 vdd n542 cla_cell3_4_p1 vdd TP L=0.18U W=1.98U AS=0.7128P AD=0.7128P 
+ PS=4.68U PD=4.68U 
Mtr_01788 vdd n431 cla_cell0_5_g vdd TP L=0.18U W=1.62U AS=0.5832P AD=0.5832P 
+ PS=3.96U PD=3.96U 
Mtr_01787 n431 c_4_5_cout vdd vdd TP L=0.18U W=1.44U AS=0.5184P AD=0.5184P 
+ PS=3.6U PD=3.6U 
Mtr_01786 vdd c_4_6_sum n431 vdd TP L=0.18U W=1.44U AS=0.5184P AD=0.5184P 
+ PS=3.6U PD=3.6U 
Mtr_01785 cla_cell0_5_g n431 vdd vdd TP L=0.18U W=1.62U AS=0.5832P AD=0.5832P 
+ PS=3.96U PD=3.96U 
Mtr_01784 vdd n433 cla_cell1_5_p1 vdd TP L=0.18U W=2.16U AS=0.7776P AD=0.7776P 
+ PS=5.04U PD=5.04U 
Mtr_01783 cla_cell5_5_p cla_cell1_5_p1 vdd vdd TP L=0.18U W=2.16U AS=0.7776P 
+ AD=0.7776P PS=5.04U PD=5.04U 
Mtr_01782 n430 c_4_5_cout vdd vdd TP L=0.18U W=1.8U AS=0.648P AD=0.648P 
+ PS=4.32U PD=4.32U 
Mtr_01781 n433 c_4_6_sum n430 vdd TP L=0.18U W=1.8U AS=0.648P AD=0.648P 
+ PS=4.32U PD=4.32U 
Mtr_01780 vdd n318 cla_cell1_6_tsg vdd TP L=0.18U W=1.62U AS=0.5832P 
+ AD=0.5832P PS=3.96U PD=3.96U 
Mtr_01779 n318 c_4_7_sum vdd vdd TP L=0.18U W=1.44U AS=0.5184P AD=0.5184P 
+ PS=3.6U PD=3.6U 
Mtr_01778 vdd c_4_6_cout n318 vdd TP L=0.18U W=1.44U AS=0.5184P AD=0.5184P 
+ PS=3.6U PD=3.6U 
Mtr_01777 cla_cell1_6_tsg n318 vdd vdd TP L=0.18U W=1.62U AS=0.5832P 
+ AD=0.5832P PS=3.96U PD=3.96U 
Mtr_01776 vdd n321 cla_cell0_6_p vdd TP L=0.18U W=2.16U AS=0.7776P AD=0.7776P 
+ PS=5.04U PD=5.04U 
Mtr_01775 cla_cell5_6_p cla_cell0_6_p vdd vdd TP L=0.18U W=2.16U AS=0.7776P 
+ AD=0.7776P PS=5.04U PD=5.04U 
Mtr_01774 n202 c_4_7_sum vdd vdd TP L=0.18U W=1.8U AS=0.648P AD=0.648P 
+ PS=4.32U PD=4.32U 
Mtr_01773 n321 c_4_6_cout n202 vdd TP L=0.18U W=1.8U AS=0.648P AD=0.648P 
+ PS=4.32U PD=4.32U 
Mtr_01772 vdd n200 cla_cell0_7_g vdd TP L=0.18U W=1.62U AS=0.5832P AD=0.5832P 
+ PS=3.96U PD=3.96U 
Mtr_01771 n200 c_4_7_cout vdd vdd TP L=0.18U W=1.44U AS=0.5184P AD=0.5184P 
+ PS=3.6U PD=3.6U 
Mtr_01770 vdd c_4_8_sum n200 vdd TP L=0.18U W=1.44U AS=0.5184P AD=0.5184P 
+ PS=3.6U PD=3.6U 
Mtr_01769 cla_cell0_7_g n200 vdd vdd TP L=0.18U W=1.62U AS=0.5832P AD=0.5832P 
+ PS=3.96U PD=3.96U 
Mtr_01768 vdd n204 cla_cell0_7_p vdd TP L=0.18U W=2.16U AS=0.7776P AD=0.7776P 
+ PS=5.04U PD=5.04U 
Mtr_01767 cla_cell0_7_pn cla_cell0_7_p vdd vdd TP L=0.18U W=2.16U AS=0.7776P 
+ AD=0.7776P PS=5.04U PD=5.04U 
Mtr_01766 n199 c_4_7_cout vdd vdd TP L=0.18U W=1.8U AS=0.648P AD=0.648P 
+ PS=4.32U PD=4.32U 
Mtr_01765 n204 c_4_8_sum n199 vdd TP L=0.18U W=1.8U AS=0.648P AD=0.648P 
+ PS=4.32U PD=4.32U 
Mtr_01764 vdd n111 cla_cell0_8_g vdd TP L=0.18U W=1.62U AS=0.5832P AD=0.5832P 
+ PS=3.96U PD=3.96U 
Mtr_01763 n111 cla_cell0_8_a vdd vdd TP L=0.18U W=1.44U AS=0.5184P AD=0.5184P 
+ PS=3.6U PD=3.6U 
Mtr_01762 vdd c_4_8_cout n111 vdd TP L=0.18U W=1.44U AS=0.5184P AD=0.5184P 
+ PS=3.6U PD=3.6U 
Mtr_01761 cla_cell0_8_g n111 vdd vdd TP L=0.18U W=1.62U AS=0.5832P AD=0.5832P 
+ PS=3.96U PD=3.96U 
Mtr_01760 vdd n114 cla_cell0_8_p vdd TP L=0.18U W=2.16U AS=0.7776P AD=0.7776P 
+ PS=5.04U PD=5.04U 
Mtr_01759 cla_cell5_8_p cla_cell0_8_p vdd vdd TP L=0.18U W=2.16U AS=0.7776P 
+ AD=0.7776P PS=5.04U PD=5.04U 
Mtr_01758 n22 cla_cell0_8_a vdd vdd TP L=0.18U W=1.8U AS=0.648P AD=0.648P 
+ PS=4.32U PD=4.32U 
Mtr_01757 n114 c_4_8_cout n22 vdd TP L=0.18U W=1.8U AS=0.648P AD=0.648P 
+ PS=4.32U PD=4.32U 
Mtr_01756 n23 cla_cell0_8_a n21 vdd TP L=0.18U W=1.8U AS=0.648P AD=0.648P 
+ PS=4.32U PD=4.32U 
Mtr_01755 n21 cla_cell0_9_a vdd vdd TP L=0.18U W=1.8U AS=0.648P AD=0.648P 
+ PS=4.32U PD=4.32U 
Mtr_01754 cla_cell0_9_g n18 vdd vdd TP L=0.18U W=1.62U AS=0.5832P AD=0.5832P 
+ PS=3.96U PD=3.96U 
Mtr_01753 vdd cla_cell0_8_a n18 vdd TP L=0.18U W=1.44U AS=0.5184P AD=0.5184P 
+ PS=3.6U PD=3.6U 
Mtr_01752 n18 cla_cell0_9_a vdd vdd TP L=0.18U W=1.44U AS=0.5184P AD=0.5184P 
+ PS=3.6U PD=3.6U 
Mtr_01751 vdd n18 cla_cell0_9_g vdd TP L=0.18U W=1.62U AS=0.5832P AD=0.5832P 
+ PS=3.96U PD=3.96U 
Mtr_01750 vdd n23 cla_cell0_9_p vdd TP L=0.18U W=1.98U AS=0.7128P AD=0.7128P 
+ PS=4.68U PD=4.68U 
Mtr_01749 vdd cla_cell0_0_g n788 vdd TP L=0.18U W=3.6U AS=1.296P AD=1.296P 
+ PS=7.92U PD=7.92U 
Mtr_01748 n788 cla_cell0_1_p vdd vdd TP L=0.18U W=3.6U AS=1.296P AD=1.296P 
+ PS=7.92U PD=7.92U 
Mtr_01747 cla_cell1_1_co cla_cell0_1_g n788 vdd TP L=0.18U W=3.6U AS=1.296P 
+ AD=1.296P PS=7.92U PD=7.92U 
Mtr_01746 vdd cla_cell0_2_g cla_cell1_2_ng vdd TP L=0.18U W=1.44U AS=0.5184P 
+ AD=0.5184P PS=3.6U PD=3.6U 
Mtr_01745 cla_cell1_2_np cla_cell0_2_p vdd vdd TP L=0.18U W=1.44U AS=0.5184P 
+ AD=0.5184P PS=3.6U PD=3.6U 
Mtr_01744 cla_cell1_3_g cla_cell0_3_g n649 vdd TP L=0.18U W=0.9U AS=0.324P 
+ AD=0.324P PS=2.52U PD=2.52U 
Mtr_01743 n649 cla_cell0_3_g cla_cell1_3_g vdd TP L=0.18U W=1.08U AS=0.3888P 
+ AD=0.3888P PS=2.88U PD=2.88U 
Mtr_01742 n649 cla_cell0_2_g vdd vdd TP L=0.18U W=0.9U AS=0.324P AD=0.324P 
+ PS=2.52U PD=2.52U 
Mtr_01741 n649 cla_cell0_2_g vdd vdd TP L=0.18U W=1.08U AS=0.3888P AD=0.3888P 
+ PS=2.88U PD=2.88U 
Mtr_01740 vdd cla_cell1_3_p1 n649 vdd TP L=0.18U W=2.52U AS=0.9072P AD=0.9072P 
+ PS=5.76U PD=5.76U 
Mtr_01739 n592 cla_cell0_2_p vdd vdd TP L=0.18U W=0.9U AS=0.324P AD=0.324P 
+ PS=2.52U PD=2.52U 
Mtr_01738 vdd cla_cell0_2_p n592 vdd TP L=0.18U W=0.18U AS=0.0648P AD=0.0648P 
+ PS=1.08U PD=1.08U 
Mtr_01737 n592 cla_cell1_3_p1 vdd vdd TP L=0.18U W=0.18U AS=0.0648P AD=0.0648P 
+ PS=1.08U PD=1.08U 
Mtr_01736 n592 cla_cell1_3_p1 vdd vdd TP L=0.18U W=0.9U AS=0.324P AD=0.324P 
+ PS=2.52U PD=2.52U 
Mtr_01735 cla_cell2_5_tsg cla_cell0_5_g n429 vdd TP L=0.18U W=0.9U AS=0.324P 
+ AD=0.324P PS=2.52U PD=2.52U 
Mtr_01734 n429 cla_cell0_5_g cla_cell2_5_tsg vdd TP L=0.18U W=1.08U AS=0.3888P 
+ AD=0.3888P PS=2.88U PD=2.88U 
Mtr_01733 n429 cla_cell0_4_g vdd vdd TP L=0.18U W=0.9U AS=0.324P AD=0.324P 
+ PS=2.52U PD=2.52U 
Mtr_01732 n429 cla_cell0_4_g vdd vdd TP L=0.18U W=1.08U AS=0.3888P AD=0.3888P 
+ PS=2.88U PD=2.88U 
Mtr_01731 vdd cla_cell1_5_p1 n429 vdd TP L=0.18U W=2.52U AS=0.9072P AD=0.9072P 
+ PS=5.76U PD=5.76U 
Mtr_01730 cla_cell2_5_tsp cla_cell3_4_p1 vdd vdd TP L=0.18U W=0.9U AS=0.324P 
+ AD=0.324P PS=2.52U PD=2.52U 
Mtr_01729 vdd cla_cell3_4_p1 cla_cell2_5_tsp vdd TP L=0.18U W=0.18U AS=0.0648P 
+ AD=0.0648P PS=1.08U PD=1.08U 
Mtr_01728 cla_cell2_5_tsp cla_cell1_5_p1 vdd vdd TP L=0.18U W=0.18U AS=0.0648P 
+ AD=0.0648P PS=1.08U PD=1.08U 
Mtr_01727 cla_cell2_5_tsp cla_cell1_5_p1 vdd vdd TP L=0.18U W=0.9U AS=0.324P 
+ AD=0.324P PS=2.52U PD=2.52U 
Mtr_01726 vdd cla_cell1_6_tsg cla_cell1_6_ng vdd TP L=0.18U W=1.44U AS=0.5184P 
+ AD=0.5184P PS=3.6U PD=3.6U 
Mtr_01725 cla_cell1_6_np cla_cell0_6_p vdd vdd TP L=0.18U W=1.44U AS=0.5184P 
+ AD=0.5184P PS=3.6U PD=3.6U 
Mtr_01724 cla_cell1_7_g cla_cell0_7_g n198 vdd TP L=0.18U W=0.36U AS=0.1296P 
+ AD=0.1296P PS=1.44U PD=1.44U 
Mtr_01723 n198 cla_cell0_7_g cla_cell1_7_g vdd TP L=0.18U W=0.36U AS=0.1296P 
+ AD=0.1296P PS=1.44U PD=1.44U 
Mtr_01722 n198 cla_cell1_6_tsg vdd vdd TP L=0.18U W=0.36U AS=0.1296P 
+ AD=0.1296P PS=1.44U PD=1.44U 
Mtr_01721 n198 cla_cell1_6_tsg vdd vdd TP L=0.18U W=0.36U AS=0.1296P 
+ AD=0.1296P PS=1.44U PD=1.44U 
Mtr_01720 cla_cell2_7_pl cla_cell0_6_p vdd vdd TP L=0.18U W=0.72U AS=0.2592P 
+ AD=0.2592P PS=2.16U PD=2.16U 
Mtr_01719 vdd cla_cell0_7_p n198 vdd TP L=0.18U W=1.26U AS=0.4536P AD=0.4536P 
+ PS=3.24U PD=3.24U 
Mtr_01718 cla_cell2_7_pl cla_cell0_7_p vdd vdd TP L=0.18U W=0.72U AS=0.2592P 
+ AD=0.2592P PS=2.16U PD=2.16U 
Mtr_01717 vdd cla_cell0_8_g cla_cell1_8_ng vdd TP L=0.18U W=1.44U AS=0.5184P 
+ AD=0.5184P PS=3.6U PD=3.6U 
Mtr_01716 cla_cell1_8_np cla_cell0_8_p vdd vdd TP L=0.18U W=1.44U AS=0.5184P 
+ AD=0.5184P PS=3.6U PD=3.6U 
Mtr_01715 cla_cell1_9_g cla_cell0_9_g n17 vdd TP L=0.18U W=0.36U AS=0.1296P 
+ AD=0.1296P PS=1.44U PD=1.44U 
Mtr_01714 n17 cla_cell0_9_g cla_cell1_9_g vdd TP L=0.18U W=0.36U AS=0.1296P 
+ AD=0.1296P PS=1.44U PD=1.44U 
Mtr_01713 n17 cla_cell0_8_g vdd vdd TP L=0.18U W=0.36U AS=0.1296P AD=0.1296P 
+ PS=1.44U PD=1.44U 
Mtr_01712 n17 cla_cell0_8_g vdd vdd TP L=0.18U W=0.36U AS=0.1296P AD=0.1296P 
+ PS=1.44U PD=1.44U 
Mtr_01711 n15 cla_cell0_8_p vdd vdd TP L=0.18U W=0.72U AS=0.2592P AD=0.2592P 
+ PS=2.16U PD=2.16U 
Mtr_01710 vdd cla_cell0_9_p n17 vdd TP L=0.18U W=1.26U AS=0.4536P AD=0.4536P 
+ PS=3.24U PD=3.24U 
Mtr_01709 n15 cla_cell0_9_p vdd vdd TP L=0.18U W=0.72U AS=0.2592P AD=0.2592P 
+ PS=2.16U PD=2.16U 
Mtr_01708 vdd cla_cell1_2_ng cla_cell5_2_g vdd TP L=0.18U W=1.44U AS=0.5184P 
+ AD=0.5184P PS=3.6U PD=3.6U 
Mtr_01707 cla_cell5_2_g cla_cell1_2_np n647 vdd TP L=0.18U W=2.88U AS=1.0368P 
+ AD=1.0368P PS=6.48U PD=6.48U 
Mtr_01706 n647 cla_cell1_1_co vdd vdd TP L=0.18U W=2.88U AS=1.0368P AD=1.0368P 
+ PS=6.48U PD=6.48U 
Mtr_01705 vdd n592 n589 vdd TP L=0.18U W=4.5U AS=1.62P AD=1.62P PS=9.72U 
+ PD=9.72U 
Mtr_01704 n589 cla_cell1_1_co cla_cell3_4_g2 vdd TP L=0.18U W=4.5U AS=1.62P 
+ AD=1.62P PS=9.72U PD=9.72U 
Mtr_01703 cla_cell3_4_g2 cla_cell1_3_g vdd vdd TP L=0.18U W=2.34U AS=0.8424P 
+ AD=0.8424P PS=5.4U PD=5.4U 
Mtr_01702 vdd cla_cell2_5_tsg cla_cell2_5_ng vdd TP L=0.18U W=1.44U AS=0.5184P 
+ AD=0.5184P PS=3.6U PD=3.6U 
Mtr_01701 cla_cell2_5_np cla_cell2_5_tsp vdd vdd TP L=0.18U W=1.44U AS=0.5184P 
+ AD=0.5184P PS=3.6U PD=3.6U 
Mtr_01700 n288 cla_cell1_6_np vdd vdd TP L=0.18U W=1.26U AS=0.4536P AD=0.4536P 
+ PS=3.24U PD=3.24U 
Mtr_01699 cla_cell3_6_p1 cla_cell2_5_tsp n288 vdd TP L=0.18U W=1.26U 
+ AS=0.4536P AD=0.4536P PS=3.24U PD=3.24U 
Mtr_01698 vdd cla_cell1_6_np n195 vdd TP L=0.18U W=1.26U AS=0.4536P AD=0.4536P 
+ PS=3.24U PD=3.24U 
Mtr_01697 n195 cla_cell2_5_tsg cla_cell2_6_g vdd TP L=0.18U W=1.26U AS=0.4536P 
+ AD=0.4536P PS=3.24U PD=3.24U 
Mtr_01696 cla_cell2_6_g cla_cell1_6_ng vdd vdd TP L=0.18U W=0.72U AS=0.2592P 
+ AD=0.2592P PS=2.16U PD=2.16U 
Mtr_01695 n162 cla_cell2_7_pl vdd vdd TP L=0.18U W=1.26U AS=0.4536P AD=0.4536P 
+ PS=3.24U PD=3.24U 
Mtr_01694 n192 cla_cell2_5_tsp n162 vdd TP L=0.18U W=1.26U AS=0.4536P 
+ AD=0.4536P PS=3.24U PD=3.24U 
Mtr_01693 vdd cla_cell2_7_pl n194 vdd TP L=0.18U W=1.26U AS=0.4536P AD=0.4536P 
+ PS=3.24U PD=3.24U 
Mtr_01692 n194 cla_cell2_5_tsg cla_cell2_7_g vdd TP L=0.18U W=1.26U AS=0.4536P 
+ AD=0.4536P PS=3.24U PD=3.24U 
Mtr_01691 cla_cell2_7_g cla_cell1_7_g vdd vdd TP L=0.18U W=0.72U AS=0.2592P 
+ AD=0.2592P PS=2.16U PD=2.16U 
Mtr_01690 vdd cla_cell3_4_g2 n497 vdd TP L=0.18U W=2.88U AS=1.0368P AD=1.0368P 
+ PS=6.48U PD=6.48U 
Mtr_01689 n497 cla_cell3_4_p1 vdd vdd TP L=0.18U W=2.88U AS=1.0368P AD=1.0368P 
+ PS=6.48U PD=6.48U 
Mtr_01688 cla_cell3_4_co cla_cell0_4_g n497 vdd TP L=0.18U W=2.88U AS=1.0368P 
+ AD=1.0368P PS=6.48U PD=6.48U 
Mtr_01687 vdd cla_cell3_4_g2 n424 vdd TP L=0.18U W=2.88U AS=1.0368P AD=1.0368P 
+ PS=6.48U PD=6.48U 
Mtr_01686 n424 cla_cell2_5_np vdd vdd TP L=0.18U W=2.88U AS=1.0368P AD=1.0368P 
+ PS=6.48U PD=6.48U 
Mtr_01685 cla_cell3_5_co cla_cell2_5_ng n424 vdd TP L=0.18U W=2.88U AS=1.0368P 
+ AD=1.0368P PS=6.48U PD=6.48U 
Mtr_01684 vdd cla_cell3_4_g2 n287 vdd TP L=0.18U W=2.88U AS=1.0368P AD=1.0368P 
+ PS=6.48U PD=6.48U 
Mtr_01683 n287 cla_cell3_6_p1 vdd vdd TP L=0.18U W=2.88U AS=1.0368P AD=1.0368P 
+ PS=6.48U PD=6.48U 
Mtr_01682 cla_cell3_6_co cla_cell2_6_g n287 vdd TP L=0.18U W=2.88U AS=1.0368P 
+ AD=1.0368P PS=6.48U PD=6.48U 
Mtr_01681 vdd cla_cell3_4_g2 n191 vdd TP L=0.18U W=3.6U AS=1.296P AD=1.296P 
+ PS=7.92U PD=7.92U 
Mtr_01680 n191 n192 vdd vdd TP L=0.18U W=3.6U AS=1.296P AD=1.296P PS=7.92U 
+ PD=7.92U 
Mtr_01679 cla_cell3_7_co cla_cell2_7_g n191 vdd TP L=0.18U W=3.6U AS=1.296P 
+ AD=1.296P PS=7.92U PD=7.92U 
Mtr_01678 vdd cla_cell1_8_ng cla_cell5_8_g vdd TP L=0.18U W=1.44U AS=0.5184P 
+ AD=0.5184P PS=3.6U PD=3.6U 
Mtr_01677 cla_cell5_8_g cla_cell1_8_np n78 vdd TP L=0.18U W=2.88U AS=1.0368P 
+ AD=1.0368P PS=6.48U PD=6.48U 
Mtr_01676 n78 cla_cell3_7_co vdd vdd TP L=0.18U W=2.88U AS=1.0368P AD=1.0368P 
+ PS=6.48U PD=6.48U 
Mtr_01675 vdd cla_cell1_9_g n14 vdd TP L=0.18U W=1.44U AS=0.5184P AD=0.5184P 
+ PS=3.6U PD=3.6U 
Mtr_01674 n14 n15 n13 vdd TP L=0.18U W=2.88U AS=1.0368P AD=1.0368P PS=6.48U 
+ PD=6.48U 
Mtr_01673 n13 cla_cell3_7_co vdd vdd TP L=0.18U W=2.88U AS=1.0368P AD=1.0368P 
+ PS=6.48U PD=6.48U 
Mtr_01672 n787 cla_cell0_1_p n786 vdd TP L=0.18U W=1.62U AS=0.5832P AD=0.5832P 
+ PS=3.96U PD=3.96U 
Mtr_01671 n786 cla_cell0_0_g vdd vdd TP L=0.18U W=1.62U AS=0.5832P AD=0.5832P 
+ PS=3.96U PD=3.96U 
Mtr_01670 p_7 n787 vdd vdd TP L=0.18U W=3.6U AS=1.296P AD=1.296P PS=7.92U 
+ PD=7.92U 
Mtr_01669 n646 cla_cell1_1_co vdd vdd TP L=0.18U W=1.62U AS=0.5832P AD=0.5832P 
+ PS=3.96U PD=3.96U 
Mtr_01668 n697 cla_cell0_2_pn n646 vdd TP L=0.18U W=1.62U AS=0.5832P 
+ AD=0.5832P PS=3.96U PD=3.96U 
Mtr_01667 p_8 n697 vdd vdd TP L=0.18U W=3.6U AS=1.296P AD=1.296P PS=7.92U 
+ PD=7.92U 
Mtr_01666 n645 cla_cell1_3_p1 n588 vdd TP L=0.18U W=1.62U AS=0.5832P 
+ AD=0.5832P PS=3.96U PD=3.96U 
Mtr_01665 n588 cla_cell5_2_g vdd vdd TP L=0.18U W=1.62U AS=0.5832P AD=0.5832P 
+ PS=3.96U PD=3.96U 
Mtr_01664 p_9 n645 vdd vdd TP L=0.18U W=3.6U AS=1.296P AD=1.296P PS=7.92U 
+ PD=7.92U 
Mtr_01663 n423 cla_cell3_4_g2 vdd vdd TP L=0.18U W=1.62U AS=0.5832P AD=0.5832P 
+ PS=3.96U PD=3.96U 
Mtr_01662 n531 cla_cell3_4_p1 n423 vdd TP L=0.18U W=1.62U AS=0.5832P 
+ AD=0.5832P PS=3.96U PD=3.96U 
Mtr_01661 p_10 n531 vdd vdd TP L=0.18U W=3.6U AS=1.296P AD=1.296P PS=7.92U 
+ PD=7.92U 
Mtr_01660 n421 cla_cell5_5_p n422 vdd TP L=0.18U W=1.62U AS=0.5832P AD=0.5832P 
+ PS=3.96U PD=3.96U 
Mtr_01659 n422 cla_cell3_4_co vdd vdd TP L=0.18U W=1.62U AS=0.5832P AD=0.5832P 
+ PS=3.96U PD=3.96U 
Mtr_01658 p_11 n421 vdd vdd TP L=0.18U W=3.6U AS=1.296P AD=1.296P PS=7.92U 
+ PD=7.92U 
Mtr_01657 n188 cla_cell3_5_co vdd vdd TP L=0.18U W=1.62U AS=0.5832P AD=0.5832P 
+ PS=3.96U PD=3.96U 
Mtr_01656 n304 cla_cell5_6_p n188 vdd TP L=0.18U W=1.62U AS=0.5832P AD=0.5832P 
+ PS=3.96U PD=3.96U 
Mtr_01655 p_12 n304 vdd vdd TP L=0.18U W=3.6U AS=1.296P AD=1.296P PS=7.92U 
+ PD=7.92U 
Mtr_01654 n190 cla_cell0_7_pn n189 vdd TP L=0.18U W=1.62U AS=0.5832P 
+ AD=0.5832P PS=3.96U PD=3.96U 
Mtr_01653 n189 cla_cell3_6_co vdd vdd TP L=0.18U W=1.62U AS=0.5832P AD=0.5832P 
+ PS=3.96U PD=3.96U 
Mtr_01652 p_13 n190 vdd vdd TP L=0.18U W=3.6U AS=1.296P AD=1.296P PS=7.92U 
+ PD=7.92U 
Mtr_01651 n77 cla_cell3_7_co vdd vdd TP L=0.18U W=1.62U AS=0.5832P AD=0.5832P 
+ PS=3.96U PD=3.96U 
Mtr_01650 n101 cla_cell5_8_p n77 vdd TP L=0.18U W=1.62U AS=0.5832P AD=0.5832P 
+ PS=3.96U PD=3.96U 
Mtr_01649 p_14 n101 vdd vdd TP L=0.18U W=3.6U AS=1.296P AD=1.296P PS=7.92U 
+ PD=7.92U 
Mtr_01648 n11 cla_cell0_9_p n12 vdd TP L=0.18U W=1.62U AS=0.5832P AD=0.5832P 
+ PS=3.96U PD=3.96U 
Mtr_01647 n12 cla_cell5_8_g vdd vdd TP L=0.18U W=1.62U AS=0.5832P AD=0.5832P 
+ PS=3.96U PD=3.96U 
Mtr_01646 p_15 n11 vdd vdd TP L=0.18U W=3.6U AS=1.296P AD=1.296P PS=7.92U 
+ PD=7.92U 
Mtr_01645 cla_cell0_8_a n26 vdd vdd TP L=0.18U W=1.8U AS=0.648P AD=0.648P 
+ PS=4.32U PD=4.32U 
Mtr_01644 n34 n30 vdd vdd TP L=0.18U W=1.8U AS=0.648P AD=0.648P PS=4.32U 
+ PD=4.32U 
Mtr_01643 cla_cell0_9_a n35 vdd vdd TP L=0.18U W=2.52U AS=0.9072P AD=0.9072P 
+ PS=5.76U PD=5.76U 
Mtr_01642 n25 c_4_7_a vdd vdd TP L=0.18U W=1.8U AS=0.648P AD=0.648P PS=4.32U 
+ PD=4.32U 
Mtr_01641 vdd p_4_9_pi2j n25 vdd TP L=0.18U W=1.8U AS=0.648P AD=0.648P 
+ PS=4.32U PD=4.32U 
Mtr_01640 n35 c_4_8_cin n25 vdd TP L=0.18U W=1.8U AS=0.648P AD=0.648P PS=4.32U 
+ PD=4.32U 
Mtr_01639 n35 c_4_7_a n33 vdd TP L=0.18U W=1.8U AS=0.648P AD=0.648P PS=4.32U 
+ PD=4.32U 
Mtr_01638 n33 p_4_9_pi2j vdd vdd TP L=0.18U W=1.8U AS=0.648P AD=0.648P 
+ PS=4.32U PD=4.32U 
Mtr_01637 n26 c_4_8_cin n34 vdd TP L=0.18U W=1.8U AS=0.648P AD=0.648P PS=4.32U 
+ PD=4.32U 
Mtr_01636 vdd n32 n30 vdd TP L=0.18U W=1.44U AS=0.5184P AD=0.5184P PS=3.6U 
+ PD=3.6U 
Mtr_01635 n32 c_4_7_a n31 vdd TP L=0.18U W=1.8U AS=0.648P AD=0.648P PS=4.32U 
+ PD=4.32U 
Mtr_01634 n31 p_4_9_pi2j vdd vdd TP L=0.18U W=1.8U AS=0.648P AD=0.648P 
+ PS=4.32U PD=4.32U 
Mtr_01633 n39 a_7 vdd vdd TP L=0.18U W=1.08U AS=0.3888P AD=0.3888P PS=2.88U 
+ PD=2.88U 
Mtr_01632 vdd p_4_9_t_s n29 vdd TP L=0.18U W=1.08U AS=0.3888P AD=0.3888P 
+ PS=2.88U PD=2.88U 
Mtr_01631 n29 p_4_1_n2j p_4_9_pi2j vdd TP L=0.18U W=1.08U AS=0.3888P 
+ AD=0.3888P PS=2.88U PD=2.88U 
Mtr_01630 vdd n39 n36 vdd TP L=0.18U W=1.08U AS=0.3888P AD=0.3888P PS=2.88U 
+ PD=2.88U 
Mtr_01629 n36 n40 p_4_9_t_s vdd TP L=0.18U W=1.08U AS=0.3888P AD=0.3888P 
+ PS=2.88U PD=2.88U 
Mtr_01628 n40 p_4_1_c2j vdd vdd TP L=0.18U W=1.08U AS=0.3888P AD=0.3888P 
+ PS=2.88U PD=2.88U 
Mtr_01627 vdd n126 n83 vdd TP L=0.18U W=1.08U AS=0.3888P AD=0.3888P PS=2.88U 
+ PD=2.88U 
Mtr_01626 n82 p_4_1_n2j p_4_8_pi2j vdd TP L=0.18U W=1.08U AS=0.3888P 
+ AD=0.3888P PS=2.88U PD=2.88U 
Mtr_01625 vdd p_4_8_t_s n82 vdd TP L=0.18U W=1.08U AS=0.3888P AD=0.3888P 
+ PS=2.88U PD=2.88U 
Mtr_01624 vdd a_6 n84 vdd TP L=0.18U W=1.08U AS=0.3888P AD=0.3888P PS=2.88U 
+ PD=2.88U 
Mtr_01623 n85 a_7 vdd vdd TP L=0.18U W=1.08U AS=0.3888P AD=0.3888P PS=2.88U 
+ PD=2.88U 
Mtr_01622 n128 p_4_2_d2j n85 vdd TP L=0.18U W=1.08U AS=0.3888P AD=0.3888P 
+ PS=2.88U PD=2.88U 
Mtr_01621 n84 p_4_2_d2jbar n128 vdd TP L=0.18U W=1.08U AS=0.3888P AD=0.3888P 
+ PS=2.88U PD=2.88U 
Mtr_01620 n126 p_4_1_c2j vdd vdd TP L=0.18U W=1.08U AS=0.3888P AD=0.3888P 
+ PS=2.88U PD=2.88U 
Mtr_01619 n83 n128 p_4_8_t_s vdd TP L=0.18U W=1.08U AS=0.3888P AD=0.3888P 
+ PS=2.88U PD=2.88U 
Mtr_01618 vdd c_4_7_a n80 vdd TP L=0.18U W=1.8U AS=0.648P AD=0.648P PS=4.32U 
+ PD=4.32U 
Mtr_01617 c_4_8_sum c_4_8_s2_s vdd vdd TP L=0.18U W=1.8U AS=0.648P AD=0.648P 
+ PS=4.32U PD=4.32U 
Mtr_01616 n81 n116 vdd vdd TP L=0.18U W=1.8U AS=0.648P AD=0.648P PS=4.32U 
+ PD=4.32U 
Mtr_01615 c_4_8_cout n120 vdd vdd TP L=0.18U W=2.52U AS=0.9072P AD=0.9072P 
+ PS=5.76U PD=5.76U 
Mtr_01614 n80 p_4_8_pi2j vdd vdd TP L=0.18U W=1.8U AS=0.648P AD=0.648P 
+ PS=4.32U PD=4.32U 
Mtr_01613 n120 c_4_8_cin n80 vdd TP L=0.18U W=1.8U AS=0.648P AD=0.648P 
+ PS=4.32U PD=4.32U 
Mtr_01612 n120 p_4_8_pi2j n28 vdd TP L=0.18U W=1.8U AS=0.648P AD=0.648P 
+ PS=4.32U PD=4.32U 
Mtr_01611 n28 c_4_7_a vdd vdd TP L=0.18U W=1.8U AS=0.648P AD=0.648P PS=4.32U 
+ PD=4.32U 
Mtr_01610 c_4_8_s2_s c_4_8_cin n81 vdd TP L=0.18U W=1.8U AS=0.648P AD=0.648P 
+ PS=4.32U PD=4.32U 
Mtr_01609 vdd c_4_8_s1_s n116 vdd TP L=0.18U W=1.44U AS=0.5184P AD=0.5184P 
+ PS=3.6U PD=3.6U 
Mtr_01608 c_4_8_s1_s p_4_8_pi2j n27 vdd TP L=0.18U W=1.8U AS=0.648P AD=0.648P 
+ PS=4.32U PD=4.32U 
Mtr_01607 n27 c_4_7_a vdd vdd TP L=0.18U W=1.8U AS=0.648P AD=0.648P PS=4.32U 
+ PD=4.32U 
Mtr_01606 c_4_7_sum c_4_7_s2_s vdd vdd TP L=0.18U W=1.8U AS=0.648P AD=0.648P 
+ PS=4.32U PD=4.32U 
Mtr_01605 n219 n216 vdd vdd TP L=0.18U W=1.8U AS=0.648P AD=0.648P PS=4.32U 
+ PD=4.32U 
Mtr_01604 c_4_7_cout n221 vdd vdd TP L=0.18U W=2.52U AS=0.9072P AD=0.9072P 
+ PS=5.76U PD=5.76U 
Mtr_01603 n209 c_4_7_a vdd vdd TP L=0.18U W=1.8U AS=0.648P AD=0.648P PS=4.32U 
+ PD=4.32U 
Mtr_01602 vdd p_4_7_pi2j n209 vdd TP L=0.18U W=1.8U AS=0.648P AD=0.648P 
+ PS=4.32U PD=4.32U 
Mtr_01601 n221 c_4_7_cin n209 vdd TP L=0.18U W=1.8U AS=0.648P AD=0.648P 
+ PS=4.32U PD=4.32U 
Mtr_01600 n221 c_4_7_a n218 vdd TP L=0.18U W=1.8U AS=0.648P AD=0.648P PS=4.32U 
+ PD=4.32U 
Mtr_01599 n218 p_4_7_pi2j vdd vdd TP L=0.18U W=1.8U AS=0.648P AD=0.648P 
+ PS=4.32U PD=4.32U 
Mtr_01598 c_4_7_s2_s c_4_7_cin n219 vdd TP L=0.18U W=1.8U AS=0.648P AD=0.648P 
+ PS=4.32U PD=4.32U 
Mtr_01597 vdd c_4_7_s1_s n216 vdd TP L=0.18U W=1.44U AS=0.5184P AD=0.5184P 
+ PS=3.6U PD=3.6U 
Mtr_01596 c_4_7_s1_s c_4_7_a n217 vdd TP L=0.18U W=1.8U AS=0.648P AD=0.648P 
+ PS=4.32U PD=4.32U 
Mtr_01595 n217 p_4_7_pi2j vdd vdd TP L=0.18U W=1.8U AS=0.648P AD=0.648P 
+ PS=4.32U PD=4.32U 
Mtr_01594 n166 p_4_2_d2j n222 vdd TP L=0.18U W=1.08U AS=0.3888P AD=0.3888P 
+ PS=2.88U PD=2.88U 
Mtr_01593 n222 p_4_2_d2jbar n165 vdd TP L=0.18U W=1.08U AS=0.3888P AD=0.3888P 
+ PS=2.88U PD=2.88U 
Mtr_01592 n165 a_5 vdd vdd TP L=0.18U W=1.08U AS=0.3888P AD=0.3888P PS=2.88U 
+ PD=2.88U 
Mtr_01591 vdd a_6 n166 vdd TP L=0.18U W=1.08U AS=0.3888P AD=0.3888P PS=2.88U 
+ PD=2.88U 
Mtr_01590 vdd p_4_7_t_s n214 vdd TP L=0.18U W=1.08U AS=0.3888P AD=0.3888P 
+ PS=2.88U PD=2.88U 
Mtr_01589 n214 p_4_1_n2j p_4_7_pi2j vdd TP L=0.18U W=1.08U AS=0.3888P 
+ AD=0.3888P PS=2.88U PD=2.88U 
Mtr_01588 vdd n222 n223 vdd TP L=0.18U W=1.08U AS=0.3888P AD=0.3888P PS=2.88U 
+ PD=2.88U 
Mtr_01587 n223 n227 p_4_7_t_s vdd TP L=0.18U W=1.08U AS=0.3888P AD=0.3888P 
+ PS=2.88U PD=2.88U 
Mtr_01586 n227 p_4_1_c2j vdd vdd TP L=0.18U W=1.08U AS=0.3888P AD=0.3888P 
+ PS=2.88U PD=2.88U 
Mtr_01585 vdd n335 n224 vdd TP L=0.18U W=1.08U AS=0.3888P AD=0.3888P PS=2.88U 
+ PD=2.88U 
Mtr_01584 n215 p_4_1_n2j p_4_6_pi2j vdd TP L=0.18U W=1.08U AS=0.3888P 
+ AD=0.3888P PS=2.88U PD=2.88U 
Mtr_01583 vdd p_4_6_t_s n215 vdd TP L=0.18U W=1.08U AS=0.3888P AD=0.3888P 
+ PS=2.88U PD=2.88U 
Mtr_01582 vdd a_4 n228 vdd TP L=0.18U W=1.08U AS=0.3888P AD=0.3888P PS=2.88U 
+ PD=2.88U 
Mtr_01581 n229 a_5 vdd vdd TP L=0.18U W=1.08U AS=0.3888P AD=0.3888P PS=2.88U 
+ PD=2.88U 
Mtr_01580 n333 p_4_2_d2j n229 vdd TP L=0.18U W=1.08U AS=0.3888P AD=0.3888P 
+ PS=2.88U PD=2.88U 
Mtr_01579 n228 p_4_2_d2jbar n333 vdd TP L=0.18U W=1.08U AS=0.3888P AD=0.3888P 
+ PS=2.88U PD=2.88U 
Mtr_01578 n335 p_4_1_c2j vdd vdd TP L=0.18U W=1.08U AS=0.3888P AD=0.3888P 
+ PS=2.88U PD=2.88U 
Mtr_01577 n224 n333 p_4_6_t_s vdd TP L=0.18U W=1.08U AS=0.3888P AD=0.3888P 
+ PS=2.88U PD=2.88U 
Mtr_01576 vdd c_4_6_a n289 vdd TP L=0.18U W=1.8U AS=0.648P AD=0.648P PS=4.32U 
+ PD=4.32U 
Mtr_01575 c_4_6_sum c_4_6_s2_s vdd vdd TP L=0.18U W=1.8U AS=0.648P AD=0.648P 
+ PS=4.32U PD=4.32U 
Mtr_01574 n290 n291 vdd vdd TP L=0.18U W=1.8U AS=0.648P AD=0.648P PS=4.32U 
+ PD=4.32U 
Mtr_01573 c_4_6_cout n329 vdd vdd TP L=0.18U W=2.52U AS=0.9072P AD=0.9072P 
+ PS=5.76U PD=5.76U 
Mtr_01572 n289 p_4_6_pi2j vdd vdd TP L=0.18U W=1.8U AS=0.648P AD=0.648P 
+ PS=4.32U PD=4.32U 
Mtr_01571 n329 c_4_6_cin n289 vdd TP L=0.18U W=1.8U AS=0.648P AD=0.648P 
+ PS=4.32U PD=4.32U 
Mtr_01570 n329 p_4_6_pi2j n212 vdd TP L=0.18U W=1.8U AS=0.648P AD=0.648P 
+ PS=4.32U PD=4.32U 
Mtr_01569 n212 c_4_6_a vdd vdd TP L=0.18U W=1.8U AS=0.648P AD=0.648P PS=4.32U 
+ PD=4.32U 
Mtr_01568 c_4_6_s2_s c_4_6_cin n290 vdd TP L=0.18U W=1.8U AS=0.648P AD=0.648P 
+ PS=4.32U PD=4.32U 
Mtr_01567 vdd c_4_6_s1_s n291 vdd TP L=0.18U W=1.44U AS=0.5184P AD=0.5184P 
+ PS=3.6U PD=3.6U 
Mtr_01566 c_4_6_s1_s p_4_6_pi2j n213 vdd TP L=0.18U W=1.8U AS=0.648P AD=0.648P 
+ PS=4.32U PD=4.32U 
Mtr_01565 n213 c_4_6_a vdd vdd TP L=0.18U W=1.8U AS=0.648P AD=0.648P PS=4.32U 
+ PD=4.32U 
Mtr_01564 c_4_5_sum c_4_5_s2_s vdd vdd TP L=0.18U W=1.8U AS=0.648P AD=0.648P 
+ PS=4.32U PD=4.32U 
Mtr_01563 n392 n393 vdd vdd TP L=0.18U W=1.8U AS=0.648P AD=0.648P PS=4.32U 
+ PD=4.32U 
Mtr_01562 c_4_5_cout n446 vdd vdd TP L=0.18U W=2.52U AS=0.9072P AD=0.9072P 
+ PS=5.76U PD=5.76U 
Mtr_01561 n437 c_4_5_a vdd vdd TP L=0.18U W=1.8U AS=0.648P AD=0.648P PS=4.32U 
+ PD=4.32U 
Mtr_01560 vdd c_4_5_b n437 vdd TP L=0.18U W=1.8U AS=0.648P AD=0.648P PS=4.32U 
+ PD=4.32U 
Mtr_01559 n446 c_4_5_cin n437 vdd TP L=0.18U W=1.8U AS=0.648P AD=0.648P 
+ PS=4.32U PD=4.32U 
Mtr_01558 n446 c_4_5_a n445 vdd TP L=0.18U W=1.8U AS=0.648P AD=0.648P PS=4.32U 
+ PD=4.32U 
Mtr_01557 n445 c_4_5_b vdd vdd TP L=0.18U W=1.8U AS=0.648P AD=0.648P PS=4.32U 
+ PD=4.32U 
Mtr_01556 c_4_5_s2_s c_4_5_cin n392 vdd TP L=0.18U W=1.8U AS=0.648P AD=0.648P 
+ PS=4.32U PD=4.32U 
Mtr_01555 vdd c_4_5_s1_s n393 vdd TP L=0.18U W=1.44U AS=0.5184P AD=0.5184P 
+ PS=3.6U PD=3.6U 
Mtr_01554 c_4_5_s1_s c_4_5_a n444 vdd TP L=0.18U W=1.8U AS=0.648P AD=0.648P 
+ PS=4.32U PD=4.32U 
Mtr_01553 n444 c_4_5_b vdd vdd TP L=0.18U W=1.8U AS=0.648P AD=0.648P PS=4.32U 
+ PD=4.32U 
Mtr_01552 n396 p_4_2_d2j n447 vdd TP L=0.18U W=1.08U AS=0.3888P AD=0.3888P 
+ PS=2.88U PD=2.88U 
Mtr_01551 n447 p_4_2_d2jbar n395 vdd TP L=0.18U W=1.08U AS=0.3888P AD=0.3888P 
+ PS=2.88U PD=2.88U 
Mtr_01550 n395 a_3 vdd vdd TP L=0.18U W=1.08U AS=0.3888P AD=0.3888P PS=2.88U 
+ PD=2.88U 
Mtr_01549 vdd a_4 n396 vdd TP L=0.18U W=1.08U AS=0.3888P AD=0.3888P PS=2.88U 
+ PD=2.88U 
Mtr_01548 vdd p_4_5_t_s n391 vdd TP L=0.18U W=1.08U AS=0.3888P AD=0.3888P 
+ PS=2.88U PD=2.88U 
Mtr_01547 n391 p_4_1_n2j c_4_5_b vdd TP L=0.18U W=1.08U AS=0.3888P AD=0.3888P 
+ PS=2.88U PD=2.88U 
Mtr_01546 vdd n447 n394 vdd TP L=0.18U W=1.08U AS=0.3888P AD=0.3888P PS=2.88U 
+ PD=2.88U 
Mtr_01545 n394 n450 p_4_5_t_s vdd TP L=0.18U W=1.08U AS=0.3888P AD=0.3888P 
+ PS=2.88U PD=2.88U 
Mtr_01544 n450 p_4_1_c2j vdd vdd TP L=0.18U W=1.08U AS=0.3888P AD=0.3888P 
+ PS=2.88U PD=2.88U 
Mtr_01543 vdd n505 n449 vdd TP L=0.18U W=1.08U AS=0.3888P AD=0.3888P PS=2.88U 
+ PD=2.88U 
Mtr_01542 n442 p_4_1_n2j p_4_4_pi2j vdd TP L=0.18U W=1.08U AS=0.3888P 
+ AD=0.3888P PS=2.88U PD=2.88U 
Mtr_01541 vdd p_4_4_t_s n442 vdd TP L=0.18U W=1.08U AS=0.3888P AD=0.3888P 
+ PS=2.88U PD=2.88U 
Mtr_01540 vdd a_2 n451 vdd TP L=0.18U W=1.08U AS=0.3888P AD=0.3888P PS=2.88U 
+ PD=2.88U 
Mtr_01539 n452 a_3 vdd vdd TP L=0.18U W=1.08U AS=0.3888P AD=0.3888P PS=2.88U 
+ PD=2.88U 
Mtr_01538 n508 p_4_2_d2j n452 vdd TP L=0.18U W=1.08U AS=0.3888P AD=0.3888P 
+ PS=2.88U PD=2.88U 
Mtr_01537 n451 p_4_2_d2jbar n508 vdd TP L=0.18U W=1.08U AS=0.3888P AD=0.3888P 
+ PS=2.88U PD=2.88U 
Mtr_01536 n505 p_4_1_c2j vdd vdd TP L=0.18U W=1.08U AS=0.3888P AD=0.3888P 
+ PS=2.88U PD=2.88U 
Mtr_01535 n449 n508 p_4_4_t_s vdd TP L=0.18U W=1.08U AS=0.3888P AD=0.3888P 
+ PS=2.88U PD=2.88U 
Mtr_01534 vdd c_4_4_a n436 vdd TP L=0.18U W=1.8U AS=0.648P AD=0.648P PS=4.32U 
+ PD=4.32U 
Mtr_01533 c_4_4_sum c_4_4_s2_s vdd vdd TP L=0.18U W=1.8U AS=0.648P AD=0.648P 
+ PS=4.32U PD=4.32U 
Mtr_01532 n501 n502 vdd vdd TP L=0.18U W=1.8U AS=0.648P AD=0.648P PS=4.32U 
+ PD=4.32U 
Mtr_01531 c_4_4_cout n499 vdd vdd TP L=0.18U W=2.52U AS=0.9072P AD=0.9072P 
+ PS=5.76U PD=5.76U 
Mtr_01530 n436 p_4_4_pi2j vdd vdd TP L=0.18U W=1.8U AS=0.648P AD=0.648P 
+ PS=4.32U PD=4.32U 
Mtr_01529 n499 c_4_4_cin n436 vdd TP L=0.18U W=1.8U AS=0.648P AD=0.648P 
+ PS=4.32U PD=4.32U 
Mtr_01528 n499 p_4_4_pi2j n441 vdd TP L=0.18U W=1.8U AS=0.648P AD=0.648P 
+ PS=4.32U PD=4.32U 
Mtr_01527 n441 c_4_4_a vdd vdd TP L=0.18U W=1.8U AS=0.648P AD=0.648P PS=4.32U 
+ PD=4.32U 
Mtr_01526 c_4_4_s2_s c_4_4_cin n501 vdd TP L=0.18U W=1.8U AS=0.648P AD=0.648P 
+ PS=4.32U PD=4.32U 
Mtr_01525 vdd c_4_4_s1_s n502 vdd TP L=0.18U W=1.44U AS=0.5184P AD=0.5184P 
+ PS=3.6U PD=3.6U 
Mtr_01524 c_4_4_s1_s p_4_4_pi2j n440 vdd TP L=0.18U W=1.8U AS=0.648P AD=0.648P 
+ PS=4.32U PD=4.32U 
Mtr_01523 n440 c_4_4_a vdd vdd TP L=0.18U W=1.8U AS=0.648P AD=0.648P PS=4.32U 
+ PD=4.32U 
Mtr_01522 c_4_3_sum c_4_3_s2_s vdd vdd TP L=0.18U W=1.8U AS=0.648P AD=0.648P 
+ PS=4.32U PD=4.32U 
Mtr_01521 n601 n603 vdd vdd TP L=0.18U W=1.8U AS=0.648P AD=0.648P PS=4.32U 
+ PD=4.32U 