* Spice description of ram4x128
* Spice driver version 700
* Date ( dd/mm/yyyy hh:mm:ss ): 10/09/2002 at 18:56:47

* INTERF write vss vdd en dout[3] dout[2] dout[1] dout[0] ck adr[6] adr[5] 
* INTERF adr[4] adr[3] adr[2] adr[1] adr[0] 


.subckt ram4x128 1578 1579 1580 1581 1582 1583 1584 1585 1586 1587 1588 1589 
+ 1590 1591 1592 1593 
* net 1 = mbk_sig129 
* net 2 = mbk_sig135 
* net 3 = mbk_sig139 
* net 4 = mbk_sig140 
* net 5 = mbk_sig87 
* net 6 = mbk_sig104 
* net 7 = mbk_sig125 
* net 8 = mbk_sig1 
* net 9 = mbk_sig3 
* net 10 = mbk_sig132 
* net 11 = mbk_sig136 
* net 12 = mbk_sig142 
* net 13 = mbk_sig141 
* net 14 = mbk_sig90 
* net 15 = mbk_sig106 
* net 16 = mbk_sig126 
* net 17 = mbk_sig9 
* net 18 = mbk_sig10 
* net 19 = mbk_sig1591 
* net 20 = mbk_sig1589 
* net 21 = mbk_sig1577 
* net 22 = mbk_sig1575 
* net 23 = mbk_sig1544 
* net 24 = mbk_sig1576 
* net 25 = mbk_sig1543 
* net 26 = mbk_sig1542 
* net 27 = mbk_sig1512 
* net 28 = mbk_sig1511 
* net 29 = mbk_sig1573 
* net 30 = mbk_sig1541 
* net 31 = mbk_sig1486 
* net 32 = mbk_sig1487 
* net 33 = mbk_sig1466 
* net 34 = mbk_sig1465 
* net 35 = mbk_sig1443 
* net 36 = mbk_sig1440 
* net 37 = mbk_sig1441 
* net 38 = mbk_sig1442 
* net 39 = mbk_sig1463 
* net 40 = mbk_sig1437 
* net 41 = mbk_sig1407 
* net 42 = mbk_sig1408 
* net 43 = mbk_sig1377 
* net 44 = mbk_sig1376 
* net 45 = mbk_sig1353 
* net 46 = mbk_sig1352 
* net 47 = mbk_sig1329 
* net 48 = mbk_sig1328 
* net 49 = mbk_sig1374 
* net 50 = mbk_sig1349 
* net 51 = mbk_sig1307 
* net 52 = mbk_sig1304 
* net 53 = mbk_sig1305 
* net 54 = mbk_sig1306 
* net 55 = mbk_sig1272 
* net 56 = mbk_sig1273 
* net 57 = mbk_sig1240 
* net 58 = mbk_sig1241 
* net 59 = mbk_sig1302 
* net 60 = mbk_sig1271 
* net 61 = mbk_sig1217 
* net 62 = mbk_sig1216 
* net 63 = mbk_sig1196 
* net 64 = mbk_sig1195 
* net 65 = mbk_sig1165 
* net 66 = mbk_sig1162 
* net 67 = mbk_sig1163 
* net 68 = mbk_sig1164 
* net 69 = mbk_sig1193 
* net 70 = mbk_sig1159 
* net 71 = mbk_sig1128 
* net 72 = mbk_sig1129 
* net 73 = mbk_sig1106 
* net 74 = mbk_sig1107 
* net 75 = mbk_sig1083 
* net 76 = mbk_sig1082 
* net 77 = mbk_sig1058 
* net 78 = mbk_sig1059 
* net 79 = mbk_sig1104 
* net 80 = mbk_sig1079 
* net 81 = mbk_sig1027 
* net 82 = mbk_sig1057 
* net 83 = mbk_sig1026 
* net 84 = mbk_sig1025 
* net 85 = mbk_sig994 
* net 86 = mbk_sig993 
* net 87 = mbk_sig969 
* net 88 = mbk_sig970 
* net 89 = mbk_sig1023 
* net 90 = mbk_sig991 
* net 91 = mbk_sig947 
* net 92 = mbk_sig946 
* net 93 = mbk_sig925 
* net 94 = mbk_sig926 
* net 95 = mbk_sig893 
* net 96 = mbk_sig924 
* net 97 = mbk_sig892 
* net 98 = mbk_sig891 
* net 99 = mbk_sig922 
* net 100 = mbk_sig887 
* net 101 = mbk_sig856 
* net 102 = mbk_sig857 
* net 103 = mbk_sig836 
* net 104 = mbk_sig837 
* net 105 = mbk_sig813 
* net 106 = mbk_sig812 
* net 107 = mbk_sig788 
* net 108 = mbk_sig789 
* net 109 = mbk_sig834 
* net 110 = mbk_sig809 
* net 111 = mbk_sig786 
* net 112 = mbk_sig787 
* net 113 = mbk_sig755 
* net 114 = mbk_sig756 
* net 115 = mbk_sig723 
* net 116 = mbk_sig724 
* net 117 = mbk_sig699 
* net 118 = mbk_sig698 
* net 119 = mbk_sig753 
* net 120 = mbk_sig720 
* net 121 = mbk_sig677 
* net 122 = mbk_sig675 
* net 123 = mbk_sig644 
* net 124 = mbk_sig676 
* net 125 = mbk_sig643 
* net 126 = mbk_sig642 
* net 127 = mbk_sig612 
* net 128 = mbk_sig611 
* net 129 = mbk_sig673 
* net 130 = mbk_sig641 
* net 131 = mbk_sig586 
* net 132 = mbk_sig587 
* net 133 = mbk_sig566 
* net 134 = mbk_sig565 
* net 135 = mbk_sig543 
* net 136 = mbk_sig541 
* net 137 = mbk_sig542 
* net 138 = mbk_sig509 
* net 139 = mbk_sig563 
* net 140 = mbk_sig538 
* net 141 = mbk_sig507 
* net 142 = mbk_sig508 
* net 143 = mbk_sig477 
* net 144 = mbk_sig476 
* net 145 = mbk_sig454 
* net 146 = mbk_sig453 
* net 147 = mbk_sig429 
* net 148 = mbk_sig428 
* net 149 = mbk_sig474 
* net 150 = mbk_sig450 
* net 151 = mbk_sig406 
* net 152 = mbk_sig407 
* net 153 = mbk_sig404 
* net 154 = mbk_sig405 
* net 155 = mbk_sig372 
* net 156 = mbk_sig373 
* net 157 = mbk_sig341 
* net 158 = mbk_sig340 
* net 159 = mbk_sig402 
* net 160 = mbk_sig371 
* net 161 = mbk_sig317 
* net 162 = mbk_sig316 
* net 163 = mbk_sig296 
* net 164 = mbk_sig295 
* net 165 = mbk_sig273 
* net 166 = mbk_sig270 
* net 167 = mbk_sig271 
* net 168 = mbk_sig272 
* net 169 = mbk_sig293 
* net 170 = mbk_sig267 
* net 171 = mbk_sig237 
* net 172 = mbk_sig238 
* net 173 = mbk_sig206 
* net 174 = mbk_sig207 
* net 175 = mbk_sig183 
* net 176 = mbk_sig182 
* net 177 = mbk_sig159 
* net 178 = mbk_sig158 
* net 179 = mbk_sig204 
* net 180 = mbk_sig179 
* net 181 = mbk_sig77 
* net 182 = mbk_sig79 
* net 183 = mbk_sig92 
* net 184 = mbk_sig91 
* net 185 = mbk_sig48 
* net 186 = mbk_sig52 
* net 187 = mbk_sig44 
* net 188 = mbk_sig41 
* net 189 = mbk_sig18 
* net 190 = mbk_sig133 
* net 191 = mbk_sig137 
* net 192 = mbk_sig143 
* net 193 = mbk_sig144 
* net 194 = mbk_sig97 
* net 195 = mbk_sig112 
* net 196 = mbk_sig127 
* net 197 = mbk_sig31 
* net 198 = mbk_sig30 
* net 199 = mbk_sig134 
* net 200 = mbk_sig138 
* net 201 = mbk_sig145 
* net 202 = mbk_sig146 
* net 203 = mbk_sig99 
* net 204 = mbk_sig114 
* net 205 = mbk_sig128 
* net 206 = mbk_sig35 
* net 207 = mbk_sig37 
* net 208 = rbit_0_0.ram_63_1.m0_s 
* net 209 = rbit_0_0.ram_63_1.m1_s 
* net 210 = rbit_0_0.ram_63_0.m0_s 
* net 211 = rbit_0_0.ram_63_0.m1_s 
* net 212 = rbit_0_0.ram_62_1.m0_s 
* net 213 = rbit_0_0.ram_62_1.m1_s 
* net 214 = rbit_0_0.ram_62_0.m0_s 
* net 215 = rbit_0_0.ram_62_0.m1_s 
* net 216 = rbit_0_0.ram_61_1.m0_s 
* net 217 = rbit_0_0.ram_61_1.m1_s 
* net 218 = rbit_0_0.ram_61_0.m0_s 
* net 219 = rbit_0_0.ram_61_0.m1_s 
* net 220 = rbit_0_0.ram_60_1.m0_s 
* net 221 = rbit_0_0.ram_60_1.m1_s 
* net 222 = rbit_0_0.ram_60_0.m0_s 
* net 223 = rbit_0_0.ram_60_0.m1_s 
* net 224 = rbit_0_0.ram_59_1.m0_s 
* net 225 = rbit_0_0.ram_59_1.m1_s 
* net 226 = rbit_0_0.ram_59_0.m0_s 
* net 227 = rbit_0_0.ram_59_0.m1_s 
* net 228 = rbit_0_0.ram_58_1.m0_s 
* net 229 = rbit_0_0.ram_58_1.m1_s 
* net 230 = rbit_0_0.ram_58_0.m0_s 
* net 231 = rbit_0_0.ram_58_0.m1_s 
* net 232 = rbit_0_0.ram_57_1.m0_s 
* net 233 = rbit_0_0.ram_57_1.m1_s 
* net 234 = rbit_0_0.ram_57_0.m0_s 
* net 235 = rbit_0_0.ram_57_0.m1_s 
* net 236 = rbit_0_0.ram_56_1.m0_s 
* net 237 = rbit_0_0.ram_56_1.m1_s 
* net 238 = rbit_0_0.ram_56_0.m0_s 
* net 239 = rbit_0_0.ram_56_0.m1_s 
* net 240 = rbit_0_0.ram_55_1.m0_s 
* net 241 = rbit_0_0.ram_55_1.m1_s 
* net 242 = rbit_0_0.ram_55_0.m0_s 
* net 243 = rbit_0_0.ram_55_0.m1_s 
* net 244 = rbit_0_0.ram_54_1.m0_s 
* net 245 = rbit_0_0.ram_54_1.m1_s 
* net 246 = rbit_0_0.ram_54_0.m0_s 
* net 247 = rbit_0_0.ram_54_0.m1_s 
* net 248 = rbit_0_0.ram_53_1.m0_s 
* net 249 = rbit_0_0.ram_53_1.m1_s 
* net 250 = rbit_0_0.ram_53_0.m0_s 
* net 251 = rbit_0_0.ram_53_0.m1_s 
* net 252 = rbit_0_0.ram_52_1.m0_s 
* net 253 = rbit_0_0.ram_52_1.m1_s 
* net 254 = rbit_0_0.ram_52_0.m0_s 
* net 255 = rbit_0_0.ram_52_0.m1_s 
* net 256 = rbit_0_0.ram_51_1.m0_s 
* net 257 = rbit_0_0.ram_51_1.m1_s 
* net 258 = rbit_0_0.ram_51_0.m0_s 
* net 259 = rbit_0_0.ram_51_0.m1_s 
* net 260 = rbit_0_0.ram_50_1.m0_s 
* net 261 = rbit_0_0.ram_50_1.m1_s 
* net 262 = rbit_0_0.ram_50_0.m0_s 
* net 263 = rbit_0_0.ram_50_0.m1_s 
* net 264 = rbit_0_0.ram_49_1.m0_s 
* net 265 = rbit_0_0.ram_49_1.m1_s 
* net 266 = rbit_0_0.ram_49_0.m0_s 
* net 267 = rbit_0_0.ram_49_0.m1_s 
* net 268 = rbit_0_0.ram_48_1.m0_s 
* net 269 = rbit_0_0.ram_48_1.m1_s 
* net 270 = rbit_0_0.ram_48_0.m0_s 
* net 271 = rbit_0_0.ram_48_0.m1_s 
* net 272 = rbit_0_0.ram_47_1.m0_s 
* net 273 = rbit_0_0.ram_47_1.m1_s 
* net 274 = rbit_0_0.ram_47_0.m0_s 
* net 275 = rbit_0_0.ram_47_0.m1_s 
* net 276 = rbit_0_0.ram_46_1.m0_s 
* net 277 = rbit_0_0.ram_46_1.m1_s 
* net 278 = rbit_0_0.ram_46_0.m0_s 
* net 279 = rbit_0_0.ram_46_0.m1_s 
* net 280 = rbit_0_0.ram_45_1.m0_s 
* net 281 = rbit_0_0.ram_45_1.m1_s 
* net 282 = rbit_0_0.ram_45_0.m0_s 
* net 283 = rbit_0_0.ram_45_0.m1_s 
* net 284 = rbit_0_0.ram_44_1.m0_s 
* net 285 = rbit_0_0.ram_44_1.m1_s 
* net 286 = rbit_0_0.ram_44_0.m0_s 
* net 287 = rbit_0_0.ram_44_0.m1_s 
* net 288 = rbit_0_0.ram_43_1.m0_s 
* net 289 = rbit_0_0.ram_43_1.m1_s 
* net 290 = rbit_0_0.ram_43_0.m0_s 
* net 291 = rbit_0_0.ram_43_0.m1_s 
* net 292 = rbit_0_0.ram_42_1.m0_s 
* net 293 = rbit_0_0.ram_42_1.m1_s 
* net 294 = rbit_0_0.ram_42_0.m0_s 
* net 295 = rbit_0_0.ram_42_0.m1_s 
* net 296 = rbit_0_0.ram_41_1.m0_s 
* net 297 = rbit_0_0.ram_41_1.m1_s 
* net 298 = rbit_0_0.ram_41_0.m0_s 
* net 299 = rbit_0_0.ram_41_0.m1_s 
* net 300 = rbit_0_0.ram_40_1.m0_s 
* net 301 = rbit_0_0.ram_40_1.m1_s 
* net 302 = rbit_0_0.ram_40_0.m0_s 
* net 303 = rbit_0_0.ram_40_0.m1_s 
* net 304 = rbit_0_0.ram_39_1.m0_s 
* net 305 = rbit_0_0.ram_39_1.m1_s 
* net 306 = rbit_0_0.ram_39_0.m0_s 
* net 307 = rbit_0_0.ram_39_0.m1_s 
* net 308 = rbit_0_0.ram_38_1.m0_s 
* net 309 = rbit_0_0.ram_38_1.m1_s 
* net 310 = rbit_0_0.ram_38_0.m0_s 
* net 311 = rbit_0_0.ram_38_0.m1_s 
* net 312 = rbit_0_0.ram_37_1.m0_s 
* net 313 = rbit_0_0.ram_37_1.m1_s 
* net 314 = rbit_0_0.ram_37_0.m0_s 
* net 315 = rbit_0_0.ram_37_0.m1_s 
* net 316 = rbit_0_0.ram_36_1.m0_s 
* net 317 = rbit_0_0.ram_36_1.m1_s 
* net 318 = rbit_0_0.ram_36_0.m0_s 
* net 319 = rbit_0_0.ram_36_0.m1_s 
* net 320 = rbit_0_0.ram_35_1.m0_s 
* net 321 = rbit_0_0.ram_35_1.m1_s 
* net 322 = rbit_0_0.ram_35_0.m0_s 
* net 323 = rbit_0_0.ram_35_0.m1_s 
* net 324 = rbit_0_0.ram_34_1.m0_s 
* net 325 = rbit_0_0.ram_34_1.m1_s 
* net 326 = rbit_0_0.ram_34_0.m0_s 
* net 327 = rbit_0_0.ram_34_0.m1_s 
* net 328 = rbit_0_0.ram_33_1.m0_s 
* net 329 = rbit_0_0.ram_33_1.m1_s 
* net 330 = rbit_0_0.ram_33_0.m0_s 
* net 331 = rbit_0_0.ram_33_0.m1_s 
* net 332 = rbit_0_0.ram_32_1.m0_s 
* net 333 = rbit_0_0.ram_32_1.m1_s 
* net 334 = rbit_0_0.ram_32_0.m0_s 
* net 335 = rbit_0_0.ram_32_0.m1_s 
* net 336 = rbit_0_0.ram_31_1.m0_s 
* net 337 = rbit_0_0.ram_31_1.m1_s 
* net 338 = rbit_0_0.ram_31_0.m0_s 
* net 339 = rbit_0_0.ram_31_0.m1_s 
* net 340 = rbit_0_0.ram_30_1.m0_s 
* net 341 = rbit_0_0.ram_30_1.m1_s 
* net 342 = rbit_0_0.ram_30_0.m0_s 
* net 343 = rbit_0_0.ram_30_0.m1_s 
* net 344 = rbit_0_0.ram_29_1.m0_s 
* net 345 = rbit_0_0.ram_29_1.m1_s 
* net 346 = rbit_0_0.ram_29_0.m0_s 
* net 347 = rbit_0_0.ram_29_0.m1_s 
* net 348 = rbit_0_0.ram_28_1.m0_s 
* net 349 = rbit_0_0.ram_28_1.m1_s 
* net 350 = rbit_0_0.ram_28_0.m0_s 
* net 351 = rbit_0_0.ram_28_0.m1_s 
* net 352 = rbit_0_0.ram_27_1.m0_s 
* net 353 = rbit_0_0.ram_27_1.m1_s 
* net 354 = rbit_0_0.ram_27_0.m0_s 
* net 355 = rbit_0_0.ram_27_0.m1_s 
* net 356 = rbit_0_0.ram_26_1.m0_s 
* net 357 = rbit_0_0.ram_26_1.m1_s 
* net 358 = rbit_0_0.ram_26_0.m0_s 
* net 359 = rbit_0_0.ram_26_0.m1_s 
* net 360 = rbit_0_0.ram_25_1.m0_s 
* net 361 = rbit_0_0.ram_25_1.m1_s 
* net 362 = rbit_0_0.ram_25_0.m0_s 
* net 363 = rbit_0_0.ram_25_0.m1_s 
* net 364 = rbit_0_0.ram_24_1.m0_s 
* net 365 = rbit_0_0.ram_24_1.m1_s 
* net 366 = rbit_0_0.ram_24_0.m0_s 
* net 367 = rbit_0_0.ram_24_0.m1_s 
* net 368 = rbit_0_0.ram_23_1.m0_s 
* net 369 = rbit_0_0.ram_23_1.m1_s 
* net 370 = rbit_0_0.ram_23_0.m0_s 
* net 371 = rbit_0_0.ram_23_0.m1_s 
* net 372 = rbit_0_0.ram_22_1.m0_s 
* net 373 = rbit_0_0.ram_22_1.m1_s 
* net 374 = rbit_0_0.ram_22_0.m0_s 
* net 375 = rbit_0_0.ram_22_0.m1_s 
* net 376 = rbit_0_0.ram_21_1.m0_s 
* net 377 = rbit_0_0.ram_21_1.m1_s 
* net 378 = rbit_0_0.ram_21_0.m0_s 
* net 379 = rbit_0_0.ram_21_0.m1_s 
* net 380 = rbit_0_0.ram_20_1.m0_s 
* net 381 = rbit_0_0.ram_20_1.m1_s 
* net 382 = rbit_0_0.ram_20_0.m0_s 
* net 383 = rbit_0_0.ram_20_0.m1_s 
* net 384 = rbit_0_0.ram_19_1.m0_s 
* net 385 = rbit_0_0.ram_19_1.m1_s 
* net 386 = rbit_0_0.ram_19_0.m0_s 
* net 387 = rbit_0_0.ram_19_0.m1_s 
* net 388 = rbit_0_0.ram_18_1.m0_s 
* net 389 = rbit_0_0.ram_18_1.m1_s 
* net 390 = rbit_0_0.ram_18_0.m0_s 
* net 391 = rbit_0_0.ram_18_0.m1_s 
* net 392 = rbit_0_0.ram_17_1.m0_s 
* net 393 = rbit_0_0.ram_17_1.m1_s 
* net 394 = rbit_0_0.ram_17_0.m0_s 
* net 395 = rbit_0_0.ram_17_0.m1_s 
* net 396 = rbit_0_0.ram_16_1.m0_s 
* net 397 = rbit_0_0.ram_16_1.m1_s 
* net 398 = rbit_0_0.ram_16_0.m0_s 
* net 399 = rbit_0_0.ram_16_0.m1_s 
* net 400 = rbit_0_0.ram_15_1.m0_s 
* net 401 = rbit_0_0.ram_15_1.m1_s 
* net 402 = rbit_0_0.ram_15_0.m0_s 
* net 403 = rbit_0_0.ram_15_0.m1_s 
* net 404 = rbit_0_0.ram_14_1.m0_s 
* net 405 = rbit_0_0.ram_14_1.m1_s 
* net 406 = rbit_0_0.ram_14_0.m0_s 
* net 407 = rbit_0_0.ram_14_0.m1_s 
* net 408 = rbit_0_0.ram_13_1.m0_s 
* net 409 = rbit_0_0.ram_13_1.m1_s 
* net 410 = rbit_0_0.ram_13_0.m0_s 
* net 411 = rbit_0_0.ram_13_0.m1_s 
* net 412 = rbit_0_0.ram_12_1.m0_s 
* net 413 = rbit_0_0.ram_12_1.m1_s 
* net 414 = rbit_0_0.ram_12_0.m0_s 
* net 415 = rbit_0_0.ram_12_0.m1_s 
* net 416 = rbit_0_0.ram_11_1.m0_s 
* net 417 = rbit_0_0.ram_11_1.m1_s 
* net 418 = rbit_0_0.ram_11_0.m0_s 
* net 419 = rbit_0_0.ram_11_0.m1_s 
* net 420 = rbit_0_0.ram_10_1.m0_s 
* net 421 = rbit_0_0.ram_10_1.m1_s 
* net 422 = rbit_0_0.ram_10_0.m0_s 
* net 423 = rbit_0_0.ram_10_0.m1_s 
* net 424 = rbit_0_0.ram_9_1.m0_s 
* net 425 = rbit_0_0.ram_9_1.m1_s 
* net 426 = rbit_0_0.ram_9_0.m0_s 
* net 427 = rbit_0_0.ram_9_0.m1_s 
* net 428 = rbit_0_0.ram_8_1.m0_s 
* net 429 = rbit_0_0.ram_8_1.m1_s 
* net 430 = rbit_0_0.ram_8_0.m0_s 
* net 431 = rbit_0_0.ram_8_0.m1_s 
* net 432 = rbit_0_0.ram_7_1.m0_s 
* net 433 = rbit_0_0.ram_7_1.m1_s 
* net 434 = rbit_0_0.ram_7_0.m0_s 
* net 435 = rbit_0_0.ram_7_0.m1_s 
* net 436 = rbit_0_0.ram_6_1.m0_s 
* net 437 = rbit_0_0.ram_6_1.m1_s 
* net 438 = rbit_0_0.ram_6_0.m0_s 
* net 439 = rbit_0_0.ram_6_0.m1_s 
* net 440 = rbit_0_0.ram_5_1.m0_s 
* net 441 = rbit_0_0.ram_5_1.m1_s 
* net 442 = rbit_0_0.ram_5_0.m0_s 
* net 443 = rbit_0_0.ram_5_0.m1_s 
* net 444 = rbit_0_0.ram_4_1.m0_s 
* net 445 = rbit_0_0.ram_4_1.m1_s 
* net 446 = rbit_0_0.ram_4_0.m0_s 
* net 447 = rbit_0_0.ram_4_0.m1_s 
* net 448 = rbit_0_0.ram_3_1.m0_s 
* net 449 = rbit_0_0.ram_3_1.m1_s 
* net 450 = rbit_0_0.ram_3_0.m0_s 
* net 451 = rbit_0_0.ram_3_0.m1_s 
* net 452 = rbit_0_0.ram_2_1.m0_s 
* net 453 = rbit_0_0.ram_2_1.m1_s 
* net 454 = rbit_0_0.ram_2_0.m0_s 
* net 455 = rbit_0_0.ram_2_0.m1_s 
* net 456 = rbit_0_0.ram_1_1.m0_s 
* net 457 = rbit_0_0.ram_1_1.m1_s 
* net 458 = rbit_0_0.ram_1_0.m0_s 
* net 459 = rbit_0_0.ram_1_0.m1_s 
* net 460 = rbit_0_0.ram_0_1.m0_s 
* net 461 = rbit_0_0.ram_0_1.m1_s 
* net 462 = rbit_0_0.ram_0_0.m0_s 
* net 463 = rbit_0_0.ram_0_0.m1_s 
* net 464 = mbk_sig88 
* net 465 = mbk_sig72 
* net 466 = mbk_sig105 
* net 467 = mbk_sig71 
* net 468 = mbk_sig119 
* net 469 = mbk_sig4 
* net 470 = mbk_sig2 
* net 471 = mbk_sig45 
* net 472 = mbk_sig65 
* net 473 = mbk_sig61 
* net 474 = mbk_sig57 
* net 475 = rbit_1_0.ram_63_1.m0_s 
* net 476 = rbit_1_0.ram_63_1.m1_s 
* net 477 = rbit_1_0.ram_63_0.m0_s 
* net 478 = rbit_1_0.ram_63_0.m1_s 
* net 479 = rbit_1_0.ram_62_1.m0_s 
* net 480 = rbit_1_0.ram_62_1.m1_s 
* net 481 = rbit_1_0.ram_62_0.m0_s 
* net 482 = rbit_1_0.ram_62_0.m1_s 
* net 483 = rbit_1_0.ram_61_1.m0_s 
* net 484 = rbit_1_0.ram_61_1.m1_s 
* net 485 = rbit_1_0.ram_61_0.m0_s 
* net 486 = rbit_1_0.ram_61_0.m1_s 
* net 487 = rbit_1_0.ram_60_1.m0_s 
* net 488 = rbit_1_0.ram_60_1.m1_s 
* net 489 = rbit_1_0.ram_60_0.m0_s 
* net 490 = rbit_1_0.ram_60_0.m1_s 
* net 491 = rbit_1_0.ram_59_1.m0_s 
* net 492 = rbit_1_0.ram_59_1.m1_s 
* net 493 = rbit_1_0.ram_59_0.m0_s 
* net 494 = rbit_1_0.ram_59_0.m1_s 
* net 495 = rbit_1_0.ram_58_1.m0_s 
* net 496 = rbit_1_0.ram_58_1.m1_s 
* net 497 = rbit_1_0.ram_58_0.m0_s 
* net 498 = rbit_1_0.ram_58_0.m1_s 
* net 499 = rbit_1_0.ram_57_1.m0_s 
* net 500 = rbit_1_0.ram_57_1.m1_s 
* net 501 = rbit_1_0.ram_57_0.m0_s 
* net 502 = rbit_1_0.ram_57_0.m1_s 
* net 503 = rbit_1_0.ram_56_1.m0_s 
* net 504 = rbit_1_0.ram_56_1.m1_s 
* net 505 = rbit_1_0.ram_56_0.m0_s 
* net 506 = rbit_1_0.ram_56_0.m1_s 
* net 507 = rbit_1_0.ram_55_1.m0_s 
* net 508 = rbit_1_0.ram_55_1.m1_s 
* net 509 = rbit_1_0.ram_55_0.m0_s 
* net 510 = rbit_1_0.ram_55_0.m1_s 
* net 511 = rbit_1_0.ram_54_1.m0_s 
* net 512 = rbit_1_0.ram_54_1.m1_s 
* net 513 = rbit_1_0.ram_54_0.m0_s 
* net 514 = rbit_1_0.ram_54_0.m1_s 
* net 515 = rbit_1_0.ram_53_1.m0_s 
* net 516 = rbit_1_0.ram_53_1.m1_s 
* net 517 = rbit_1_0.ram_53_0.m0_s 
* net 518 = rbit_1_0.ram_53_0.m1_s 
* net 519 = rbit_1_0.ram_52_1.m0_s 
* net 520 = rbit_1_0.ram_52_1.m1_s 
* net 521 = rbit_1_0.ram_52_0.m0_s 
* net 522 = rbit_1_0.ram_52_0.m1_s 
* net 523 = rbit_1_0.ram_51_1.m0_s 
* net 524 = rbit_1_0.ram_51_1.m1_s 
* net 525 = rbit_1_0.ram_51_0.m0_s 
* net 526 = rbit_1_0.ram_51_0.m1_s 
* net 527 = rbit_1_0.ram_50_1.m0_s 
* net 528 = rbit_1_0.ram_50_1.m1_s 
* net 529 = rbit_1_0.ram_50_0.m0_s 
* net 530 = rbit_1_0.ram_50_0.m1_s 
* net 531 = rbit_1_0.ram_49_1.m0_s 
* net 532 = rbit_1_0.ram_49_1.m1_s 
* net 533 = rbit_1_0.ram_49_0.m0_s 
* net 534 = rbit_1_0.ram_49_0.m1_s 
* net 535 = rbit_1_0.ram_48_1.m0_s 
* net 536 = rbit_1_0.ram_48_1.m1_s 
* net 537 = rbit_1_0.ram_48_0.m0_s 
* net 538 = rbit_1_0.ram_48_0.m1_s 
* net 539 = rbit_1_0.ram_47_1.m0_s 
* net 540 = rbit_1_0.ram_47_1.m1_s 
* net 541 = rbit_1_0.ram_47_0.m0_s 
* net 542 = rbit_1_0.ram_47_0.m1_s 
* net 543 = rbit_1_0.ram_46_1.m0_s 
* net 544 = rbit_1_0.ram_46_1.m1_s 
* net 545 = rbit_1_0.ram_46_0.m0_s 
* net 546 = rbit_1_0.ram_46_0.m1_s 
* net 547 = rbit_1_0.ram_45_1.m0_s 
* net 548 = rbit_1_0.ram_45_1.m1_s 
* net 549 = rbit_1_0.ram_45_0.m0_s 
* net 550 = rbit_1_0.ram_45_0.m1_s 
* net 551 = rbit_1_0.ram_44_1.m0_s 
* net 552 = rbit_1_0.ram_44_1.m1_s 
* net 553 = rbit_1_0.ram_44_0.m0_s 
* net 554 = rbit_1_0.ram_44_0.m1_s 
* net 555 = rbit_1_0.ram_43_1.m0_s 
* net 556 = rbit_1_0.ram_43_1.m1_s 
* net 557 = rbit_1_0.ram_43_0.m0_s 
* net 558 = rbit_1_0.ram_43_0.m1_s 
* net 559 = rbit_1_0.ram_42_1.m0_s 
* net 560 = rbit_1_0.ram_42_1.m1_s 
* net 561 = rbit_1_0.ram_42_0.m0_s 
* net 562 = rbit_1_0.ram_42_0.m1_s 
* net 563 = rbit_1_0.ram_41_1.m0_s 
* net 564 = rbit_1_0.ram_41_1.m1_s 
* net 565 = rbit_1_0.ram_41_0.m0_s 
* net 566 = rbit_1_0.ram_41_0.m1_s 
* net 567 = rbit_1_0.ram_40_1.m0_s 
* net 568 = rbit_1_0.ram_40_1.m1_s 
* net 569 = rbit_1_0.ram_40_0.m0_s 
* net 570 = rbit_1_0.ram_40_0.m1_s 
* net 571 = rbit_1_0.ram_39_1.m0_s 
* net 572 = rbit_1_0.ram_39_1.m1_s 
* net 573 = rbit_1_0.ram_39_0.m0_s 
* net 574 = rbit_1_0.ram_39_0.m1_s 
* net 575 = rbit_1_0.ram_38_1.m0_s 
* net 576 = rbit_1_0.ram_38_1.m1_s 
* net 577 = rbit_1_0.ram_38_0.m0_s 
* net 578 = rbit_1_0.ram_38_0.m1_s 
* net 579 = rbit_1_0.ram_37_1.m0_s 
* net 580 = rbit_1_0.ram_37_1.m1_s 
* net 581 = rbit_1_0.ram_37_0.m0_s 
* net 582 = rbit_1_0.ram_37_0.m1_s 
* net 583 = rbit_1_0.ram_36_1.m0_s 
* net 584 = rbit_1_0.ram_36_1.m1_s 
* net 585 = rbit_1_0.ram_36_0.m0_s 
* net 586 = rbit_1_0.ram_36_0.m1_s 
* net 587 = rbit_1_0.ram_35_1.m0_s 
* net 588 = rbit_1_0.ram_35_1.m1_s 
* net 589 = rbit_1_0.ram_35_0.m0_s 
* net 590 = rbit_1_0.ram_35_0.m1_s 
* net 591 = rbit_1_0.ram_34_1.m0_s 
* net 592 = rbit_1_0.ram_34_1.m1_s 
* net 593 = rbit_1_0.ram_34_0.m0_s 
* net 594 = rbit_1_0.ram_34_0.m1_s 
* net 595 = rbit_1_0.ram_33_1.m0_s 
* net 596 = rbit_1_0.ram_33_1.m1_s 
* net 597 = rbit_1_0.ram_33_0.m0_s 
* net 598 = rbit_1_0.ram_33_0.m1_s 
* net 599 = rbit_1_0.ram_32_1.m0_s 
* net 600 = rbit_1_0.ram_32_1.m1_s 
* net 601 = rbit_1_0.ram_32_0.m0_s 
* net 602 = rbit_1_0.ram_32_0.m1_s 
* net 603 = rbit_1_0.ram_31_1.m0_s 
* net 604 = rbit_1_0.ram_31_1.m1_s 
* net 605 = rbit_1_0.ram_31_0.m0_s 
* net 606 = rbit_1_0.ram_31_0.m1_s 
* net 607 = rbit_1_0.ram_30_1.m0_s 
* net 608 = rbit_1_0.ram_30_1.m1_s 
* net 609 = rbit_1_0.ram_30_0.m0_s 
* net 610 = rbit_1_0.ram_30_0.m1_s 
* net 611 = rbit_1_0.ram_29_1.m0_s 
* net 612 = rbit_1_0.ram_29_1.m1_s 
* net 613 = rbit_1_0.ram_29_0.m0_s 
* net 614 = rbit_1_0.ram_29_0.m1_s 
* net 615 = rbit_1_0.ram_28_1.m0_s 
* net 616 = rbit_1_0.ram_28_1.m1_s 
* net 617 = rbit_1_0.ram_28_0.m0_s 
* net 618 = rbit_1_0.ram_28_0.m1_s 
* net 619 = rbit_1_0.ram_27_1.m0_s 
* net 620 = rbit_1_0.ram_27_1.m1_s 
* net 621 = rbit_1_0.ram_27_0.m0_s 
* net 622 = rbit_1_0.ram_27_0.m1_s 
* net 623 = rbit_1_0.ram_26_1.m0_s 
* net 624 = rbit_1_0.ram_26_1.m1_s 
* net 625 = rbit_1_0.ram_26_0.m0_s 
* net 626 = rbit_1_0.ram_26_0.m1_s 
* net 627 = rbit_1_0.ram_25_1.m0_s 
* net 628 = rbit_1_0.ram_25_1.m1_s 
* net 629 = rbit_1_0.ram_25_0.m0_s 
* net 630 = rbit_1_0.ram_25_0.m1_s 
* net 631 = rbit_1_0.ram_24_1.m0_s 
* net 632 = rbit_1_0.ram_24_1.m1_s 
* net 633 = rbit_1_0.ram_24_0.m0_s 
* net 634 = rbit_1_0.ram_24_0.m1_s 
* net 635 = rbit_1_0.ram_23_1.m0_s 
* net 636 = rbit_1_0.ram_23_1.m1_s 
* net 637 = rbit_1_0.ram_23_0.m0_s 
* net 638 = rbit_1_0.ram_23_0.m1_s 
* net 639 = rbit_1_0.ram_22_1.m0_s 
* net 640 = rbit_1_0.ram_22_1.m1_s 
* net 641 = rbit_1_0.ram_22_0.m0_s 
* net 642 = rbit_1_0.ram_22_0.m1_s 
* net 643 = rbit_1_0.ram_21_1.m0_s 
* net 644 = rbit_1_0.ram_21_1.m1_s 
* net 645 = rbit_1_0.ram_21_0.m0_s 
* net 646 = rbit_1_0.ram_21_0.m1_s 
* net 647 = rbit_1_0.ram_20_1.m0_s 
* net 648 = rbit_1_0.ram_20_1.m1_s 
* net 649 = rbit_1_0.ram_20_0.m0_s 
* net 650 = rbit_1_0.ram_20_0.m1_s 
* net 651 = rbit_1_0.ram_19_1.m0_s 
* net 652 = rbit_1_0.ram_19_1.m1_s 
* net 653 = rbit_1_0.ram_19_0.m0_s 
* net 654 = rbit_1_0.ram_19_0.m1_s 
* net 655 = rbit_1_0.ram_18_1.m0_s 
* net 656 = rbit_1_0.ram_18_1.m1_s 
* net 657 = rbit_1_0.ram_18_0.m0_s 
* net 658 = rbit_1_0.ram_18_0.m1_s 
* net 659 = rbit_1_0.ram_17_1.m0_s 
* net 660 = rbit_1_0.ram_17_1.m1_s 
* net 661 = rbit_1_0.ram_17_0.m0_s 
* net 662 = rbit_1_0.ram_17_0.m1_s 
* net 663 = rbit_1_0.ram_16_1.m0_s 
* net 664 = rbit_1_0.ram_16_1.m1_s 
* net 665 = rbit_1_0.ram_16_0.m0_s 
* net 666 = rbit_1_0.ram_16_0.m1_s 
* net 667 = rbit_1_0.ram_15_1.m0_s 
* net 668 = rbit_1_0.ram_15_1.m1_s 
* net 669 = rbit_1_0.ram_15_0.m0_s 
* net 670 = rbit_1_0.ram_15_0.m1_s 
* net 671 = rbit_1_0.ram_14_1.m0_s 
* net 672 = rbit_1_0.ram_14_1.m1_s 
* net 673 = rbit_1_0.ram_14_0.m0_s 
* net 674 = rbit_1_0.ram_14_0.m1_s 
* net 675 = rbit_1_0.ram_13_1.m0_s 
* net 676 = rbit_1_0.ram_13_1.m1_s 
* net 677 = rbit_1_0.ram_13_0.m0_s 
* net 678 = rbit_1_0.ram_13_0.m1_s 
* net 679 = rbit_1_0.ram_12_1.m0_s 
* net 680 = rbit_1_0.ram_12_1.m1_s 
* net 681 = rbit_1_0.ram_12_0.m0_s 
* net 682 = rbit_1_0.ram_12_0.m1_s 
* net 683 = rbit_1_0.ram_11_1.m0_s 
* net 684 = rbit_1_0.ram_11_1.m1_s 
* net 685 = rbit_1_0.ram_11_0.m0_s 
* net 686 = rbit_1_0.ram_11_0.m1_s 
* net 687 = rbit_1_0.ram_10_1.m0_s 
* net 688 = rbit_1_0.ram_10_1.m1_s 
* net 689 = rbit_1_0.ram_10_0.m0_s 
* net 690 = rbit_1_0.ram_10_0.m1_s 
* net 691 = rbit_1_0.ram_9_1.m0_s 
* net 692 = rbit_1_0.ram_9_1.m1_s 
* net 693 = rbit_1_0.ram_9_0.m0_s 
* net 694 = rbit_1_0.ram_9_0.m1_s 
* net 695 = rbit_1_0.ram_8_1.m0_s 
* net 696 = rbit_1_0.ram_8_1.m1_s 
* net 697 = rbit_1_0.ram_8_0.m0_s 
* net 698 = rbit_1_0.ram_8_0.m1_s 
* net 699 = rbit_1_0.ram_7_1.m0_s 
* net 700 = rbit_1_0.ram_7_1.m1_s 
* net 701 = rbit_1_0.ram_7_0.m0_s 
* net 702 = rbit_1_0.ram_7_0.m1_s 
* net 703 = rbit_1_0.ram_6_1.m0_s 
* net 704 = rbit_1_0.ram_6_1.m1_s 
* net 705 = rbit_1_0.ram_6_0.m0_s 
* net 706 = rbit_1_0.ram_6_0.m1_s 
* net 707 = rbit_1_0.ram_5_1.m0_s 
* net 708 = rbit_1_0.ram_5_1.m1_s 
* net 709 = rbit_1_0.ram_5_0.m0_s 
* net 710 = rbit_1_0.ram_5_0.m1_s 
* net 711 = rbit_1_0.ram_4_1.m0_s 
* net 712 = rbit_1_0.ram_4_1.m1_s 
* net 713 = rbit_1_0.ram_4_0.m0_s 
* net 714 = rbit_1_0.ram_4_0.m1_s 
* net 715 = rbit_1_0.ram_3_1.m0_s 
* net 716 = rbit_1_0.ram_3_1.m1_s 
* net 717 = rbit_1_0.ram_3_0.m0_s 
* net 718 = rbit_1_0.ram_3_0.m1_s 
* net 719 = rbit_1_0.ram_2_1.m0_s 
* net 720 = rbit_1_0.ram_2_1.m1_s 
* net 721 = rbit_1_0.ram_2_0.m0_s 
* net 722 = rbit_1_0.ram_2_0.m1_s 
* net 723 = rbit_1_0.ram_1_1.m0_s 
* net 724 = rbit_1_0.ram_1_1.m1_s 
* net 725 = rbit_1_0.ram_1_0.m0_s 
* net 726 = rbit_1_0.ram_1_0.m1_s 
* net 727 = rbit_1_0.ram_0_1.m0_s 
* net 728 = rbit_1_0.ram_0_1.m1_s 
* net 729 = rbit_1_0.ram_0_0.m0_s 
* net 730 = rbit_1_0.ram_0_0.m1_s 
* net 731 = mbk_sig89 
* net 732 = mbk_sig73 
* net 733 = mbk_sig107 
* net 734 = mbk_sig74 
* net 735 = mbk_sig120 
* net 736 = mbk_sig11 
* net 737 = mbk_sig8 
* net 738 = mbk_sig46 
* net 739 = mbk_sig66 
* net 740 = mbk_sig62 
* net 741 = mbk_sig58 
* net 742 = mbk_sig1592 
* net 743 = mbk_sig1587 
* net 744 = mbk_sig1590 
* net 745 = mbk_sig1593 
* net 746 = mbk_sig1588 
* net 747 = mbk_sig1508 
* net 748 = mbk_sig1574 
* net 749 = mbk_sig1507 
* net 750 = decod.decd_15.wld[3] 
* net 751 = decod.decd_15.wld[2] 
* net 752 = decod.decd_15.wld[1] 
* net 753 = decod.decd_15.cd 
* net 754 = decod.decd_15.wld[0] 
* net 755 = decod.decg_15.wlg[2] 
* net 756 = mbk_sig1540 
* net 757 = decod.decg_15.wlg[1] 
* net 758 = mbk_sig1510 
* net 759 = decod.decg_15.wlg[0] 
* net 760 = mbk_sig1506 
* net 761 = decod.decg_15.wlg[3] 
* net 762 = mbk_sig1572 
* net 763 = mbk_sig1439 
* net 764 = mbk_sig1464 
* net 765 = mbk_sig1438 
* net 766 = decod.decd_14.wld[3] 
* net 767 = decod.decd_14.wld[2] 
* net 768 = decod.decd_14.wld[1] 
* net 769 = decod.decd_14.cd 
* net 770 = decod.decd_14.wld[0] 
* net 771 = decod.decg_14.wlg[2] 
* net 772 = mbk_sig1462 
* net 773 = decod.decg_14.wlg[1] 
* net 774 = mbk_sig1436 
* net 775 = decod.decg_14.wlg[0] 
* net 776 = mbk_sig1405 
* net 777 = decod.decg_14.wlg[3] 
* net 778 = mbk_sig1485 
* net 779 = mbk_sig1351 
* net 780 = mbk_sig1375 
* net 781 = mbk_sig1350 
* net 782 = decod.decd_13.wld[3] 
* net 783 = decod.decd_13.wld[2] 
* net 784 = decod.decd_13.wld[1] 
* net 785 = decod.decd_13.cd 
* net 786 = decod.decd_13.wld[0] 
* net 787 = decod.decg_13.wlg[2] 
* net 788 = mbk_sig1372 
* net 789 = decod.decg_13.wlg[1] 
* net 790 = mbk_sig1348 
* net 791 = decod.decg_13.wlg[0] 
* net 792 = mbk_sig1326 
* net 793 = decod.decg_13.wlg[3] 
* net 794 = mbk_sig1373 
* net 795 = mbk_sig1238 
* net 796 = mbk_sig1303 
* net 797 = mbk_sig1237 
* net 798 = decod.decd_12.wld[3] 
* net 799 = decod.decd_12.wld[2] 
* net 800 = decod.decd_12.wld[1] 
* net 801 = decod.decd_12.cd 
* net 802 = decod.decd_12.wld[0] 
* net 803 = decod.decg_12.wlg[2] 
* net 804 = mbk_sig1270 
* net 805 = decod.decg_12.wlg[1] 
* net 806 = mbk_sig1269 
* net 807 = decod.decg_12.wlg[0] 
* net 808 = mbk_sig1236 
* net 809 = decod.decg_12.wlg[3] 
* net 810 = mbk_sig1301 
* net 811 = mbk_sig1161 
* net 812 = mbk_sig1194 
* net 813 = mbk_sig1160 
* net 814 = decod.decd_11.wld[3] 
* net 815 = decod.decd_11.wld[2] 
* net 816 = decod.decd_11.wld[1] 
* net 817 = decod.decd_11.cd 
* net 818 = decod.decd_11.wld[0] 
* net 819 = decod.decg_11.wlg[2] 
* net 820 = mbk_sig1192 
* net 821 = decod.decg_11.wlg[1] 
* net 822 = mbk_sig1157 
* net 823 = decod.decg_11.wlg[0] 
* net 824 = mbk_sig1158 
* net 825 = decod.decg_11.wlg[3] 
* net 826 = mbk_sig1215 
* net 827 = mbk_sig1081 
* net 828 = mbk_sig1105 
* net 829 = mbk_sig1080 
* net 830 = decod.decd_10.wld[3] 
* net 831 = decod.decd_10.wld[2] 
* net 832 = decod.decd_10.wld[1] 
* net 833 = decod.decd_10.cd 
* net 834 = decod.decd_10.wld[0] 
* net 835 = decod.decg_10.wlg[2] 
* net 836 = mbk_sig1102 
* net 837 = decod.decg_10.wlg[1] 
* net 838 = mbk_sig1078 
* net 839 = decod.decg_10.wlg[0] 
* net 840 = mbk_sig1055 
* net 841 = decod.decg_10.wlg[3] 
* net 842 = mbk_sig1103 
* net 843 = mbk_sig992 
* net 844 = mbk_sig1024 
* net 845 = mbk_sig967 
* net 846 = decod.decd_9.wld[3] 
* net 847 = decod.decd_9.wld[2] 
* net 848 = decod.decd_9.wld[1] 
* net 849 = decod.decd_9.cd 
* net 850 = decod.decd_9.wld[0] 
* net 851 = decod.decg_9.wlg[2] 
* net 852 = mbk_sig990 
* net 853 = decod.decg_9.wlg[1] 
* net 854 = mbk_sig989 
* net 855 = decod.decg_9.wlg[0] 
* net 856 = mbk_sig966 
* net 857 = decod.decg_9.wlg[3] 
* net 858 = mbk_sig1022 
* net 859 = mbk_sig889 
* net 860 = mbk_sig923 
* net 861 = mbk_sig888 
* net 862 = decod.decd_8.wld[3] 
* net 863 = decod.decd_8.wld[2] 
* net 864 = decod.decd_8.wld[1] 
* net 865 = decod.decd_8.cd 
* net 866 = decod.decd_8.wld[0] 
* net 867 = decod.decg_8.wlg[2] 
* net 868 = mbk_sig921 
* net 869 = decod.decg_8.wlg[1] 
* net 870 = mbk_sig886 
* net 871 = decod.decg_8.wlg[0] 
* net 872 = mbk_sig884 
* net 873 = decod.decg_8.wlg[3] 
* net 874 = mbk_sig945 
* net 875 = mbk_sig811 
* net 876 = mbk_sig835 
* net 877 = mbk_sig810 
* net 878 = decod.decd_7.wld[3] 
* net 879 = decod.decd_7.wld[2] 
* net 880 = decod.decd_7.wld[1] 
* net 881 = decod.decd_7.cd 
* net 882 = decod.decd_7.wld[0] 
* net 883 = decod.decg_7.wlg[2] 
* net 884 = mbk_sig832 
* net 885 = decod.decg_7.wlg[1] 
* net 886 = mbk_sig808 
* net 887 = decod.decg_7.wlg[0] 
* net 888 = mbk_sig784 
* net 889 = decod.decg_7.wlg[3] 
* net 890 = mbk_sig833 
* net 891 = mbk_sig722 
* net 892 = mbk_sig754 
* net 893 = mbk_sig721 
* net 894 = decod.decd_6.wld[3] 
* net 895 = decod.decd_6.wld[2] 
* net 896 = decod.decd_6.wld[1] 
* net 897 = decod.decd_6.cd 
* net 898 = decod.decd_6.wld[0] 
* net 899 = decod.decg_6.wlg[2] 
* net 900 = mbk_sig719 
* net 901 = decod.decg_6.wlg[1] 
* net 902 = mbk_sig718 
* net 903 = decod.decg_6.wlg[0] 
* net 904 = mbk_sig696 
* net 905 = decod.decg_6.wlg[3] 
* net 906 = mbk_sig752 
* net 907 = mbk_sig608 
* net 908 = mbk_sig674 
* net 909 = mbk_sig607 
* net 910 = decod.decd_5.wld[3] 
* net 911 = decod.decd_5.wld[2] 
* net 912 = decod.decd_5.wld[1] 
* net 913 = decod.decd_5.cd 
* net 914 = decod.decd_5.wld[0] 
* net 915 = decod.decg_5.wlg[2] 
* net 916 = mbk_sig640 
* net 917 = decod.decg_5.wlg[1] 
* net 918 = mbk_sig610 
* net 919 = decod.decg_5.wlg[0] 
* net 920 = mbk_sig606 
* net 921 = decod.decg_5.wlg[3] 
* net 922 = mbk_sig672 
* net 923 = mbk_sig540 
* net 924 = mbk_sig564 
* net 925 = mbk_sig539 
* net 926 = decod.decd_4.wld[3] 
* net 927 = decod.decd_4.wld[2] 
* net 928 = decod.decd_4.wld[1] 
* net 929 = decod.decd_4.cd 
* net 930 = decod.decd_4.wld[0] 
* net 931 = decod.decg_4.wlg[2] 
* net 932 = mbk_sig562 
* net 933 = decod.decg_4.wlg[1] 
* net 934 = mbk_sig537 
* net 935 = decod.decg_4.wlg[0] 
* net 936 = mbk_sig505 
* net 937 = decod.decg_4.wlg[3] 
* net 938 = mbk_sig585 
* net 939 = mbk_sig452 
* net 940 = mbk_sig475 
* net 941 = mbk_sig451 
* net 942 = decod.decd_3.wld[3] 
* net 943 = decod.decd_3.wld[2] 